data_check
_audit_creation_date              2023-05-30
_audit_creation_method            'cif2lammps'
_symmetry_space_group_name_H-M    'P1'
_symmetry_Int_Tables_number       1
_symmetry_cell_setting            triclinic
loop_
_symmetry_equiv_pos_as_xyz
  x,y,z
_cell_length_a                    37.79917658
_cell_length_b                    30.78864934
_cell_length_c                    34.30883956
_cell_angle_alpha                 87.05535313
_cell_angle_beta                  91.63607726
_cell_angle_gamma                 90.37833298
loop_
_atom_site_label
_atom_site_type_symbol
_atom_site_fract_x
_atom_site_fract_y
_atom_site_fract_z
_atom_site_charge
Cu1       Cu        0.461095        0.440652        0.034706        0.000000
Cu2       Cu        0.030692        0.442782        0.035886        0.000000
H3         H        0.222576        0.057390        0.050166        0.000000
H4         H        0.300404        0.099565        0.063726        0.000000
H5         H        0.362801        0.112341        0.011009        0.000000
H6         H        0.332277        0.150174        0.028417        0.000000
H7         H        0.317779        0.115043        0.490790        0.000000
H8         H        0.375233        0.062671        0.071332        0.000000
H9         H        0.356743        0.107027        0.095697        0.000000
H10        H        0.340079        0.052728        0.105039        0.000000
H11        H        0.358288        0.052948        0.477583        0.000000
H12        H        0.372482        0.499795        0.476015        0.000000
H13        H        0.386655        0.030172        0.017233        0.000000
H14        H        0.362826        0.333554        0.030766        0.000000
H15        H        0.382280        0.362665        0.489463        0.000000
H16        H        0.346377        0.326819        0.481394        0.000000
H17        H        0.283731        0.325843        0.469727        0.000000
H18        H        0.292855        0.309977        0.020674        0.000000
H19        H        0.250815        0.332549        0.005671        0.000000
H20        H        0.243230        0.405296        0.013857        0.000000
H21        H        0.222281        0.461180        0.090812        0.000000
H22        H        0.158459        0.445607        0.093391        0.000000
H23        H        0.119231        0.005682        0.463796        0.000000
H24        H        0.156353        0.494134        0.434406        0.000000
H25        H        0.128534        0.450245        0.452304        0.000000
H26        H        0.211487        0.495805        0.468097        0.000000
H27        H        0.497315        0.172849        0.170156        0.000000
H28        H        0.475987        0.234537        0.182315        0.000000
H29        H        0.023746        0.248967        0.227383        0.000000
H30        H        0.048994        0.278625        0.191348        0.000000
H31        H        0.042839        0.220987        0.188417        0.000000
H32        H        0.497490        0.329049        0.182622        0.000000
H33        H        0.457263        0.311257        0.157722        0.000000
H34        H        0.464937        0.298787        0.208962        0.000000
H35        H        0.043778        0.340293        0.089116        0.000000
H36        H        0.006715        0.352650        0.118807        0.000000
H37        H        0.043761        0.320629        0.137859        0.000000
H38        H        0.020449        0.359878        0.455698        0.000000
H39        H        0.474402        0.367165        0.466968        0.000000
H40        H        0.485312        0.332400        0.430048        0.000000
H41        H        0.012523        0.217942        0.433451        0.000000
H42        H        0.023338        0.273419        0.421266        0.000000
H43        H        0.477344        0.255853        0.421399        0.000000
H44        H        0.000381        0.195913        0.497097        0.000000
H45        H        0.053045        0.151199        0.055162        0.000000
H46        H        0.050804        0.076188        0.035157        0.000000
H47        H        0.407077        0.086452        0.066114        0.000000
H48        H        0.429042        0.035222        0.066474        0.000000
H49        H        0.417224        0.064133        0.020397        0.000000
H50        H        0.440623        0.150219        0.069275        0.000000
H51        H        0.461789        0.047410        0.408881        0.000000
H52        H        0.436818        0.008325        0.438549        0.000000
H53        H        0.482394        0.022279        0.450748        0.000000
H54        H        0.451779        0.040877        0.331497        0.000000
H55        H        0.423106        0.494398        0.321926        0.000000
H56        H        0.420260        0.019576        0.366230        0.000000
H57        H        0.023743        0.386169        0.411596        0.000000
H58        H        0.036284        0.358610        0.350053        0.000000
H59        H        0.032884        0.362245        0.280576        0.000000
H60        H        0.458708        0.024940        0.223818        0.000000
H61        H        0.471058        0.499442        0.160056        0.000000
H62        H        0.023520        0.377009        0.150288        0.000000
H63        H        0.026424        0.365690        0.219819        0.000000
C64        C        0.272256        0.030102        0.036397        0.000000
C65        C        0.308617        0.040271        0.033444        0.000000
C66        C        0.322295        0.083358        0.049299        0.000000
C67        C        0.334581        0.116836        0.017774        0.000000
C68        C        0.350386        0.075837        0.082079        0.000000
C69        C        0.331400        0.008982        0.018284        0.000000
C70        C        0.364203        0.023883        0.496856        0.000000
C71        C        0.320036        0.464769        0.017184        0.000000
C72        C        0.344086        0.429581        0.014474        0.000000
C73        C        0.381281        0.434905        0.024934        0.000000
C74        C        0.331391        0.387358        0.006908        0.000000
C75        C        0.357099        0.350551        0.001982        0.000000
C76        C        0.294593        0.379141        0.006651        0.000000
C77        C        0.279650        0.334384        0.000317        0.000000
C78        C        0.271232        0.412821        0.013266        0.000000
C79        C        0.283369        0.455367        0.019281        0.000000
C80        C        0.259425        0.488559        0.027630        0.000000
C81        C        0.220963        0.479639        0.029215        0.000000
C82        C        0.205912        0.465450        0.064480        0.000000
C83        C        0.169690        0.456605        0.065873        0.000000
C84        C        0.148133        0.461822        0.032066        0.000000
C85        C        0.110813        0.452263        0.034602        0.000000
C86        C        0.163079        0.476176        0.496363        0.000000
C87        C        0.140580        0.481920        0.459547        0.000000
C88        C        0.199579        0.484949        0.495289        0.000000
C89        C        0.497446        0.208882        0.114826        0.000000
C90        C        0.000381        0.251804        0.127859        0.000000
C91        C        0.495518        0.259046        0.171454        0.000000
C92        C        0.029858        0.251588        0.195868        0.000000
C93        C        0.477941        0.302251        0.180307        0.000000
C94        C        0.007418        0.286314        0.099696        0.000000
C95        C        0.026004        0.327301        0.112190        0.000000
C96        C        0.001603        0.279643        0.059046        0.000000
C97        C        0.497858        0.306177        0.489702        0.000000
C98        C        0.494455        0.343295        0.458927        0.000000
C99        C        0.001319        0.262947        0.478474        0.000000
C100       C        0.003694        0.251960        0.436259        0.000000
C101       C        0.000383        0.228808        0.006813        0.000000
C102       C        0.499946        0.236381        0.046876        0.000000
C103       C        0.498398        0.201253        0.074943        0.000000
C104       C        0.496846        0.155603        0.063249        0.000000
C105       C        0.027806        0.134377        0.053958        0.000000
C106       C        0.026388        0.091502        0.042708        0.000000
C107       C        0.462552        0.090069        0.050887        0.000000
C108       C        0.427001        0.067651        0.050890        0.000000
C109       C        0.464428        0.133476        0.061750        0.000000
C110       C        0.497818        0.314612        0.030061        0.000000
C111       C        0.493972        0.068820        0.040531        0.000000
C112       C        0.475388        0.479451        0.402496        0.000000
C113       C        0.463190        0.016207        0.426540        0.000000
C114       C        0.467931        0.480237        0.361513        0.000000
C115       C        0.439528        0.010706        0.344233        0.000000
C116       C        0.486066        0.450921        0.337873        0.000000
C117       C        0.005709        0.416611        0.356958        0.000000
C118       C        0.009211        0.413271        0.397636        0.000000
C119       C        0.021737        0.385259        0.335407        0.000000
C120       C        0.019589        0.387542        0.294916        0.000000
C121       C        0.002082        0.422241        0.274335        0.000000
C122       C        0.485870        0.454563        0.296097        0.000000
C123       C        0.470724        0.495784        0.237166        0.000000
C124       C        0.484813        0.464376        0.214314        0.000000
C125       C        0.483234        0.470374        0.173462        0.000000
C126       C        0.012694        0.401758        0.167777        0.000000
C127       C        0.014459        0.395523        0.208401        0.000000
C128       C        0.000701        0.426799        0.232656        0.000000
C129       C        0.494620        0.444248        0.420683        0.000000
C130       C        0.497170        0.439185        0.149909        0.000000
C131       C        0.496714        0.438417        0.106509        0.000000
C132       C        0.494680        0.020804        0.036997        0.000000
C133       C        0.495075        0.445015        0.464082        0.000000
C134       C        0.497108        0.362629        0.033595        0.000000
N135       N        0.412145        0.439153        0.033873        0.000000
N136       N        0.079643        0.444283        0.036716        0.000000
N137       N        0.471620        0.490060        0.276514        0.000000
O138       O        0.248955        0.062071        0.047655        0.000000
O139       O        0.494426        0.172454        0.140822        0.000000
O140       O        0.024652        0.446172        0.479147        0.000000
O141       O        0.025986        0.439062        0.092443        0.000000
O142       O        0.024343        0.005590        0.036311        0.000000
O143       O        0.026294        0.379644        0.035278        0.000000
O144       O        0.465493        0.003789        0.035313        0.000000
O145       O        0.467135        0.437261        0.091445        0.000000
O146       O        0.465802        0.444371        0.478149        0.000000
O147       O        0.467445        0.377843        0.034280        0.000000
Cu148     Cu        0.461095        0.440652        0.534706        0.000000
Cu149     Cu        0.030692        0.442782        0.535886        0.000000
H150       H        0.222576        0.057390        0.550166        0.000000
H151       H        0.300404        0.099565        0.563726        0.000000
H152       H        0.362801        0.112341        0.511009        0.000000
H153       H        0.332277        0.150174        0.528417        0.000000
H154       H        0.317779        0.115043        0.990790        0.000000
H155       H        0.375233        0.062671        0.571332        0.000000
H156       H        0.356743        0.107027        0.595697        0.000000
H157       H        0.340079        0.052728        0.605039        0.000000
H158       H        0.358288        0.052948        0.977583        0.000000
H159       H        0.372482        0.499795        0.976015        0.000000
H160       H        0.386655        0.030172        0.517233        0.000000
H161       H        0.362826        0.333554        0.530766        0.000000
H162       H        0.382280        0.362665        0.989463        0.000000
H163       H        0.346377        0.326819        0.981394        0.000000
H164       H        0.283731        0.325843        0.969727        0.000000
H165       H        0.292855        0.309977        0.520674        0.000000
H166       H        0.250815        0.332549        0.505671        0.000000
H167       H        0.243230        0.405296        0.513857        0.000000
H168       H        0.222281        0.461180        0.590812        0.000000
H169       H        0.158459        0.445607        0.593391        0.000000
H170       H        0.119231        0.005682        0.963796        0.000000
H171       H        0.156353        0.494134        0.934406        0.000000
H172       H        0.128534        0.450245        0.952304        0.000000
H173       H        0.211487        0.495805        0.968097        0.000000
H174       H        0.497315        0.172849        0.670156        0.000000
H175       H        0.475987        0.234537        0.682315        0.000000
H176       H        0.023746        0.248967        0.727383        0.000000
H177       H        0.048994        0.278625        0.691348        0.000000
H178       H        0.042839        0.220987        0.688417        0.000000
H179       H        0.497490        0.329049        0.682622        0.000000
H180       H        0.457263        0.311257        0.657722        0.000000
H181       H        0.464937        0.298787        0.708962        0.000000
H182       H        0.043778        0.340293        0.589116        0.000000
H183       H        0.006715        0.352650        0.618807        0.000000
H184       H        0.043761        0.320629        0.637859        0.000000
H185       H        0.020449        0.359878        0.955698        0.000000
H186       H        0.474402        0.367165        0.966968        0.000000
H187       H        0.485312        0.332400        0.930048        0.000000
H188       H        0.012523        0.217942        0.933451        0.000000
H189       H        0.023338        0.273419        0.921266        0.000000
H190       H        0.477344        0.255853        0.921399        0.000000
H191       H        0.000381        0.195913        0.997097        0.000000
H192       H        0.053045        0.151199        0.555162        0.000000
H193       H        0.050804        0.076188        0.535157        0.000000
H194       H        0.407077        0.086452        0.566114        0.000000
H195       H        0.429042        0.035222        0.566474        0.000000
H196       H        0.417224        0.064133        0.520397        0.000000
H197       H        0.440623        0.150219        0.569275        0.000000
H198       H        0.461789        0.047410        0.908881        0.000000
H199       H        0.436818        0.008325        0.938549        0.000000
H200       H        0.482394        0.022279        0.950748        0.000000
H201       H        0.451779        0.040877        0.831497        0.000000
H202       H        0.423106        0.494398        0.821926        0.000000
H203       H        0.420260        0.019576        0.866230        0.000000
H204       H        0.023743        0.386169        0.911596        0.000000
H205       H        0.036284        0.358610        0.850053        0.000000
H206       H        0.032884        0.362245        0.780576        0.000000
H207       H        0.458708        0.024940        0.723818        0.000000
H208       H        0.471058        0.499442        0.660056        0.000000
H209       H        0.023520        0.377009        0.650288        0.000000
H210       H        0.026424        0.365690        0.719819        0.000000
C211       C        0.272256        0.030102        0.536397        0.000000
C212       C        0.308617        0.040271        0.533444        0.000000
C213       C        0.322295        0.083358        0.549299        0.000000
C214       C        0.334581        0.116836        0.517774        0.000000
C215       C        0.350386        0.075837        0.582079        0.000000
C216       C        0.331400        0.008982        0.518284        0.000000
C217       C        0.364203        0.023883        0.996856        0.000000
C218       C        0.320036        0.464769        0.517184        0.000000
C219       C        0.344086        0.429581        0.514474        0.000000
C220       C        0.381281        0.434905        0.524934        0.000000
C221       C        0.331391        0.387358        0.506908        0.000000
C222       C        0.357099        0.350551        0.501982        0.000000
C223       C        0.294593        0.379141        0.506651        0.000000
C224       C        0.279650        0.334384        0.500317        0.000000
C225       C        0.271232        0.412821        0.513266        0.000000
C226       C        0.283369        0.455367        0.519281        0.000000
C227       C        0.259425        0.488559        0.527630        0.000000
C228       C        0.220963        0.479639        0.529215        0.000000
C229       C        0.205912        0.465450        0.564480        0.000000
C230       C        0.169690        0.456605        0.565873        0.000000
C231       C        0.148133        0.461822        0.532066        0.000000
C232       C        0.110813        0.452263        0.534602        0.000000
C233       C        0.163079        0.476176        0.996363        0.000000
C234       C        0.140580        0.481920        0.959547        0.000000
C235       C        0.199579        0.484949        0.995289        0.000000
C236       C        0.497446        0.208882        0.614826        0.000000
C237       C        0.000381        0.251804        0.627859        0.000000
C238       C        0.495518        0.259046        0.671454        0.000000
C239       C        0.029858        0.251588        0.695868        0.000000
C240       C        0.477941        0.302251        0.680307        0.000000
C241       C        0.007418        0.286314        0.599696        0.000000
C242       C        0.026004        0.327301        0.612190        0.000000
C243       C        0.001603        0.279643        0.559046        0.000000
C244       C        0.497858        0.306177        0.989702        0.000000
C245       C        0.494455        0.343295        0.958927        0.000000
C246       C        0.001319        0.262947        0.978474        0.000000
C247       C        0.003694        0.251960        0.936259        0.000000
C248       C        0.000383        0.228808        0.506813        0.000000
C249       C        0.499946        0.236381        0.546876        0.000000
C250       C        0.498398        0.201253        0.574943        0.000000
C251       C        0.496846        0.155603        0.563249        0.000000
C252       C        0.027806        0.134377        0.553958        0.000000
C253       C        0.026388        0.091502        0.542708        0.000000
C254       C        0.462552        0.090069        0.550887        0.000000
C255       C        0.427001        0.067651        0.550890        0.000000
C256       C        0.464428        0.133476        0.561750        0.000000
C257       C        0.497818        0.314612        0.530061        0.000000
C258       C        0.493972        0.068820        0.540531        0.000000
C259       C        0.475388        0.479451        0.902496        0.000000
C260       C        0.463190        0.016207        0.926540        0.000000
C261       C        0.467931        0.480237        0.861513        0.000000
C262       C        0.439528        0.010706        0.844233        0.000000
C263       C        0.486066        0.450921        0.837873        0.000000
C264       C        0.005709        0.416611        0.856958        0.000000
C265       C        0.009211        0.413271        0.897636        0.000000
C266       C        0.021737        0.385259        0.835407        0.000000
C267       C        0.019589        0.387542        0.794916        0.000000
C268       C        0.002082        0.422241        0.774335        0.000000
C269       C        0.485870        0.454563        0.796097        0.000000
C270       C        0.470724        0.495784        0.737166        0.000000
C271       C        0.484813        0.464376        0.714314        0.000000
C272       C        0.483234        0.470374        0.673462        0.000000
C273       C        0.012694        0.401758        0.667777        0.000000
C274       C        0.014459        0.395523        0.708401        0.000000
C275       C        0.000701        0.426799        0.732656        0.000000
C276       C        0.494620        0.444248        0.920683        0.000000
C277       C        0.497170        0.439185        0.649909        0.000000
C278       C        0.496714        0.438417        0.606509        0.000000
C279       C        0.494680        0.020804        0.536997        0.000000
C280       C        0.495075        0.445015        0.964082        0.000000
C281       C        0.497108        0.362629        0.533595        0.000000
N282       N        0.412145        0.439153        0.533873        0.000000
N283       N        0.079643        0.444283        0.536716        0.000000
N284       N        0.471620        0.490060        0.776514        0.000000
O285       O        0.248955        0.062071        0.547655        0.000000
O286       O        0.494426        0.172454        0.640822        0.000000
O287       O        0.024652        0.446172        0.979147        0.000000
O288       O        0.025986        0.439062        0.592443        0.000000
O289       O        0.024343        0.005590        0.536311        0.000000
O290       O        0.026294        0.379644        0.535278        0.000000
O291       O        0.465493        0.003789        0.535313        0.000000
O292       O        0.467135        0.437261        0.591445        0.000000
O293       O        0.465802        0.444371        0.978149        0.000000
O294       O        0.467445        0.377843        0.534280        0.000000
Cu295     Cu        0.461095        0.940652        0.034706        0.000000
Cu296     Cu        0.030692        0.942782        0.035886        0.000000
H297       H        0.222576        0.557390        0.050166        0.000000
H298       H        0.300404        0.599565        0.063726        0.000000
H299       H        0.362801        0.612341        0.011009        0.000000
H300       H        0.332277        0.650174        0.028417        0.000000
H301       H        0.317779        0.615043        0.490790        0.000000
H302       H        0.375233        0.562671        0.071332        0.000000
H303       H        0.356743        0.607027        0.095697        0.000000
H304       H        0.340079        0.552728        0.105039        0.000000
H305       H        0.358288        0.552948        0.477583        0.000000
H306       H        0.372482        0.999795        0.476015        0.000000
H307       H        0.386655        0.530172        0.017233        0.000000
H308       H        0.362826        0.833554        0.030766        0.000000
H309       H        0.382280        0.862665        0.489463        0.000000
H310       H        0.346377        0.826819        0.481394        0.000000
H311       H        0.283731        0.825843        0.469727        0.000000
H312       H        0.292855        0.809977        0.020674        0.000000
H313       H        0.250815        0.832549        0.005671        0.000000
H314       H        0.243230        0.905296        0.013857        0.000000
H315       H        0.222281        0.961180        0.090812        0.000000
H316       H        0.158459        0.945607        0.093391        0.000000
H317       H        0.119231        0.505682        0.463796        0.000000
H318       H        0.156353        0.994134        0.434406        0.000000
H319       H        0.128534        0.950245        0.452304        0.000000
H320       H        0.211487        0.995805        0.468097        0.000000
H321       H        0.497315        0.672849        0.170156        0.000000
H322       H        0.475987        0.734537        0.182315        0.000000
H323       H        0.023746        0.748967        0.227383        0.000000
H324       H        0.048994        0.778625        0.191348        0.000000
H325       H        0.042839        0.720987        0.188417        0.000000
H326       H        0.497490        0.829049        0.182622        0.000000
H327       H        0.457263        0.811257        0.157722        0.000000
H328       H        0.464937        0.798787        0.208962        0.000000
H329       H        0.043778        0.840293        0.089116        0.000000
H330       H        0.006715        0.852650        0.118807        0.000000
H331       H        0.043761        0.820629        0.137859        0.000000
H332       H        0.020449        0.859878        0.455698        0.000000
H333       H        0.474402        0.867165        0.466968        0.000000
H334       H        0.485312        0.832400        0.430048        0.000000
H335       H        0.012523        0.717942        0.433451        0.000000
H336       H        0.023338        0.773419        0.421266        0.000000
H337       H        0.477344        0.755853        0.421399        0.000000
H338       H        0.000381        0.695913        0.497097        0.000000
H339       H        0.053045        0.651199        0.055162        0.000000
H340       H        0.050804        0.576188        0.035157        0.000000
H341       H        0.407077        0.586452        0.066114        0.000000
H342       H        0.429042        0.535222        0.066474        0.000000
H343       H        0.417224        0.564133        0.020397        0.000000
H344       H        0.440623        0.650219        0.069275        0.000000
H345       H        0.461789        0.547410        0.408881        0.000000
H346       H        0.436818        0.508325        0.438549        0.000000
H347       H        0.482394        0.522279        0.450748        0.000000
H348       H        0.451779        0.540877        0.331497        0.000000
H349       H        0.423106        0.994398        0.321926        0.000000
H350       H        0.420260        0.519576        0.366230        0.000000
H351       H        0.023743        0.886169        0.411596        0.000000
H352       H        0.036284        0.858610        0.350053        0.000000
H353       H        0.032884        0.862245        0.280576        0.000000
H354       H        0.458708        0.524940        0.223818        0.000000
H355       H        0.471058        0.999442        0.160056        0.000000
H356       H        0.023520        0.877009        0.150288        0.000000
H357       H        0.026424        0.865690        0.219819        0.000000
C358       C        0.272256        0.530102        0.036397        0.000000
C359       C        0.308617        0.540271        0.033444        0.000000
C360       C        0.322295        0.583358        0.049299        0.000000
C361       C        0.334581        0.616836        0.017774        0.000000
C362       C        0.350386        0.575837        0.082079        0.000000
C363       C        0.331400        0.508982        0.018284        0.000000
C364       C        0.364203        0.523883        0.496856        0.000000
C365       C        0.320036        0.964769        0.017184        0.000000
C366       C        0.344086        0.929581        0.014474        0.000000
C367       C        0.381281        0.934905        0.024934        0.000000
C368       C        0.331391        0.887358        0.006908        0.000000
C369       C        0.357099        0.850551        0.001982        0.000000
C370       C        0.294593        0.879141        0.006651        0.000000
C371       C        0.279650        0.834384        0.000317        0.000000
C372       C        0.271232        0.912821        0.013266        0.000000
C373       C        0.283369        0.955367        0.019281        0.000000
C374       C        0.259425        0.988559        0.027630        0.000000
C375       C        0.220963        0.979639        0.029215        0.000000
C376       C        0.205912        0.965450        0.064480        0.000000
C377       C        0.169690        0.956605        0.065873        0.000000
C378       C        0.148133        0.961822        0.032066        0.000000
C379       C        0.110813        0.952263        0.034602        0.000000
C380       C        0.163079        0.976176        0.496363        0.000000
C381       C        0.140580        0.981920        0.459547        0.000000
C382       C        0.199579        0.984949        0.495289        0.000000
C383       C        0.497446        0.708882        0.114826        0.000000
C384       C        0.000381        0.751804        0.127859        0.000000
C385       C        0.495518        0.759046        0.171454        0.000000
C386       C        0.029858        0.751588        0.195868        0.000000
C387       C        0.477941        0.802250        0.180307        0.000000
C388       C        0.007418        0.786314        0.099696        0.000000
C389       C        0.026004        0.827301        0.112190        0.000000
C390       C        0.001603        0.779643        0.059046        0.000000
C391       C        0.497858        0.806177        0.489702        0.000000
C392       C        0.494455        0.843295        0.458927        0.000000
C393       C        0.001319        0.762947        0.478474        0.000000
C394       C        0.003694        0.751960        0.436259        0.000000
C395       C        0.000383        0.728808        0.006813        0.000000
C396       C        0.499946        0.736381        0.046876        0.000000
C397       C        0.498398        0.701253        0.074943        0.000000
C398       C        0.496846        0.655603        0.063249        0.000000
C399       C        0.027806        0.634377        0.053958        0.000000
C400       C        0.026388        0.591502        0.042708        0.000000
C401       C        0.462552        0.590069        0.050887        0.000000
C402       C        0.427001        0.567651        0.050890        0.000000
C403       C        0.464428        0.633476        0.061750        0.000000
C404       C        0.497818        0.814612        0.030061        0.000000
C405       C        0.493972        0.568820        0.040531        0.000000
C406       C        0.475388        0.979451        0.402496        0.000000
C407       C        0.463190        0.516207        0.426540        0.000000
C408       C        0.467931        0.980237        0.361513        0.000000
C409       C        0.439528        0.510706        0.344233        0.000000
C410       C        0.486066        0.950921        0.337873        0.000000
C411       C        0.005709        0.916611        0.356958        0.000000
C412       C        0.009211        0.913271        0.397636        0.000000
C413       C        0.021737        0.885259        0.335407        0.000000
C414       C        0.019589        0.887542        0.294916        0.000000
C415       C        0.002082        0.922241        0.274335        0.000000
C416       C        0.485870        0.954563        0.296097        0.000000
C417       C        0.470724        0.995784        0.237166        0.000000
C418       C        0.484813        0.964376        0.214314        0.000000
C419       C        0.483234        0.970374        0.173462        0.000000
C420       C        0.012694        0.901758        0.167777        0.000000
C421       C        0.014459        0.895523        0.208401        0.000000
C422       C        0.000701        0.926799        0.232656        0.000000
C423       C        0.494620        0.944248        0.420683        0.000000
C424       C        0.497170        0.939185        0.149909        0.000000
C425       C        0.496714        0.938417        0.106509        0.000000
C426       C        0.494680        0.520804        0.036997        0.000000
C427       C        0.495075        0.945015        0.464082        0.000000
C428       C        0.497108        0.862629        0.033595        0.000000
N429       N        0.412145        0.939153        0.033873        0.000000
N430       N        0.079643        0.944283        0.036716        0.000000
N431       N        0.471620        0.990060        0.276514        0.000000
O432       O        0.248955        0.562071        0.047655        0.000000
O433       O        0.494426        0.672454        0.140822        0.000000
O434       O        0.024652        0.946172        0.479147        0.000000
O435       O        0.025986        0.939062        0.092443        0.000000
O436       O        0.024343        0.505590        0.036311        0.000000
O437       O        0.026294        0.879644        0.035278        0.000000
O438       O        0.465493        0.503789        0.035313        0.000000
O439       O        0.467135        0.937261        0.091445        0.000000
O440       O        0.465802        0.944371        0.478149        0.000000
O441       O        0.467445        0.877843        0.034280        0.000000
Cu442     Cu        0.461095        0.940652        0.534706        0.000000
Cu443     Cu        0.030692        0.942782        0.535886        0.000000
H444       H        0.222576        0.557390        0.550166        0.000000
H445       H        0.300404        0.599565        0.563726        0.000000
H446       H        0.362801        0.612341        0.511009        0.000000
H447       H        0.332277        0.650174        0.528417        0.000000
H448       H        0.317779        0.615043        0.990790        0.000000
H449       H        0.375233        0.562671        0.571332        0.000000
H450       H        0.356743        0.607027        0.595697        0.000000
H451       H        0.340079        0.552728        0.605039        0.000000
H452       H        0.358288        0.552948        0.977583        0.000000
H453       H        0.372482        0.999795        0.976015        0.000000
H454       H        0.386655        0.530172        0.517233        0.000000
H455       H        0.362826        0.833554        0.530766        0.000000
H456       H        0.382280        0.862665        0.989463        0.000000
H457       H        0.346377        0.826819        0.981394        0.000000
H458       H        0.283731        0.825843        0.969727        0.000000
H459       H        0.292855        0.809977        0.520674        0.000000
H460       H        0.250815        0.832549        0.505671        0.000000
H461       H        0.243230        0.905296        0.513857        0.000000
H462       H        0.222281        0.961180        0.590812        0.000000
H463       H        0.158459        0.945607        0.593391        0.000000
H464       H        0.119231        0.505682        0.963796        0.000000
H465       H        0.156353        0.994134        0.934406        0.000000
H466       H        0.128534        0.950245        0.952304        0.000000
H467       H        0.211487        0.995805        0.968097        0.000000
H468       H        0.497315        0.672849        0.670156        0.000000
H469       H        0.475987        0.734537        0.682315        0.000000
H470       H        0.023746        0.748967        0.727383        0.000000
H471       H        0.048994        0.778625        0.691348        0.000000
H472       H        0.042839        0.720987        0.688417        0.000000
H473       H        0.497490        0.829049        0.682622        0.000000
H474       H        0.457263        0.811257        0.657722        0.000000
H475       H        0.464937        0.798787        0.708962        0.000000
H476       H        0.043778        0.840293        0.589116        0.000000
H477       H        0.006715        0.852650        0.618807        0.000000
H478       H        0.043761        0.820629        0.637859        0.000000
H479       H        0.020449        0.859878        0.955698        0.000000
H480       H        0.474402        0.867165        0.966968        0.000000
H481       H        0.485312        0.832400        0.930048        0.000000
H482       H        0.012523        0.717942        0.933451        0.000000
H483       H        0.023338        0.773419        0.921266        0.000000
H484       H        0.477344        0.755853        0.921399        0.000000
H485       H        0.000381        0.695913        0.997097        0.000000
H486       H        0.053045        0.651199        0.555162        0.000000
H487       H        0.050804        0.576188        0.535157        0.000000
H488       H        0.407077        0.586452        0.566114        0.000000
H489       H        0.429042        0.535222        0.566474        0.000000
H490       H        0.417224        0.564133        0.520397        0.000000
H491       H        0.440623        0.650219        0.569275        0.000000
H492       H        0.461789        0.547410        0.908881        0.000000
H493       H        0.436818        0.508325        0.938549        0.000000
H494       H        0.482394        0.522279        0.950748        0.000000
H495       H        0.451779        0.540877        0.831497        0.000000
H496       H        0.423106        0.994398        0.821926        0.000000
H497       H        0.420260        0.519576        0.866230        0.000000
H498       H        0.023743        0.886169        0.911596        0.000000
H499       H        0.036284        0.858610        0.850053        0.000000
H500       H        0.032884        0.862245        0.780576        0.000000
H501       H        0.458708        0.524940        0.723818        0.000000
H502       H        0.471058        0.999442        0.660056        0.000000
H503       H        0.023520        0.877009        0.650288        0.000000
H504       H        0.026424        0.865690        0.719819        0.000000
C505       C        0.272256        0.530102        0.536397        0.000000
C506       C        0.308617        0.540271        0.533444        0.000000
C507       C        0.322295        0.583358        0.549299        0.000000
C508       C        0.334581        0.616836        0.517774        0.000000
C509       C        0.350386        0.575837        0.582079        0.000000
C510       C        0.331400        0.508982        0.518284        0.000000
C511       C        0.364203        0.523883        0.996856        0.000000
C512       C        0.320036        0.964769        0.517184        0.000000
C513       C        0.344086        0.929581        0.514474        0.000000
C514       C        0.381281        0.934905        0.524934        0.000000
C515       C        0.331391        0.887358        0.506908        0.000000
C516       C        0.357099        0.850551        0.501982        0.000000
C517       C        0.294593        0.879141        0.506651        0.000000
C518       C        0.279650        0.834384        0.500317        0.000000
C519       C        0.271232        0.912821        0.513266        0.000000
C520       C        0.283369        0.955367        0.519281        0.000000
C521       C        0.259425        0.988559        0.527630        0.000000
C522       C        0.220963        0.979639        0.529215        0.000000
C523       C        0.205912        0.965450        0.564480        0.000000
C524       C        0.169690        0.956605        0.565873        0.000000
C525       C        0.148133        0.961822        0.532066        0.000000
C526       C        0.110813        0.952263        0.534602        0.000000
C527       C        0.163079        0.976176        0.996363        0.000000
C528       C        0.140580        0.981920        0.959547        0.000000
C529       C        0.199579        0.984949        0.995289        0.000000
C530       C        0.497446        0.708882        0.614826        0.000000
C531       C        0.000381        0.751804        0.627859        0.000000
C532       C        0.495518        0.759046        0.671454        0.000000
C533       C        0.029858        0.751588        0.695868        0.000000
C534       C        0.477941        0.802250        0.680307        0.000000
C535       C        0.007418        0.786314        0.599696        0.000000
C536       C        0.026004        0.827301        0.612190        0.000000
C537       C        0.001603        0.779643        0.559046        0.000000
C538       C        0.497858        0.806177        0.989702        0.000000
C539       C        0.494455        0.843295        0.958927        0.000000
C540       C        0.001319        0.762947        0.978474        0.000000
C541       C        0.003694        0.751960        0.936259        0.000000
C542       C        0.000383        0.728808        0.506813        0.000000
C543       C        0.499946        0.736381        0.546876        0.000000
C544       C        0.498398        0.701253        0.574943        0.000000
C545       C        0.496846        0.655603        0.563249        0.000000
C546       C        0.027806        0.634377        0.553958        0.000000
C547       C        0.026388        0.591502        0.542708        0.000000
C548       C        0.462552        0.590069        0.550887        0.000000
C549       C        0.427001        0.567651        0.550890        0.000000
C550       C        0.464428        0.633476        0.561750        0.000000
C551       C        0.497818        0.814612        0.530061        0.000000
C552       C        0.493972        0.568820        0.540531        0.000000
C553       C        0.475388        0.979451        0.902496        0.000000
C554       C        0.463190        0.516207        0.926540        0.000000
C555       C        0.467931        0.980237        0.861513        0.000000
C556       C        0.439528        0.510706        0.844233        0.000000
C557       C        0.486066        0.950921        0.837873        0.000000
C558       C        0.005709        0.916611        0.856958        0.000000
C559       C        0.009211        0.913271        0.897636        0.000000
C560       C        0.021737        0.885259        0.835407        0.000000
C561       C        0.019589        0.887542        0.794916        0.000000
C562       C        0.002082        0.922241        0.774335        0.000000
C563       C        0.485870        0.954563        0.796097        0.000000
C564       C        0.470724        0.995784        0.737166        0.000000
C565       C        0.484813        0.964376        0.714314        0.000000
C566       C        0.483234        0.970374        0.673462        0.000000
C567       C        0.012694        0.901758        0.667777        0.000000
C568       C        0.014459        0.895523        0.708401        0.000000
C569       C        0.000701        0.926799        0.732656        0.000000
C570       C        0.494620        0.944248        0.920683        0.000000
C571       C        0.497170        0.939185        0.649909        0.000000
C572       C        0.496714        0.938417        0.606509        0.000000
C573       C        0.494680        0.520804        0.536997        0.000000
C574       C        0.495075        0.945015        0.964082        0.000000
C575       C        0.497108        0.862629        0.533595        0.000000
N576       N        0.412145        0.939153        0.533873        0.000000
N577       N        0.079643        0.944283        0.536716        0.000000
N578       N        0.471620        0.990060        0.776514        0.000000
O579       O        0.248955        0.562071        0.547655        0.000000
O580       O        0.494426        0.672454        0.640822        0.000000
O581       O        0.024652        0.946172        0.979147        0.000000
O582       O        0.025986        0.939062        0.592443        0.000000
O583       O        0.024343        0.505590        0.536311        0.000000
O584       O        0.026294        0.879644        0.535278        0.000000
O585       O        0.465493        0.503789        0.535313        0.000000
O586       O        0.467135        0.937261        0.591445        0.000000
O587       O        0.465802        0.944371        0.978149        0.000000
O588       O        0.467445        0.877843        0.534280        0.000000
Cu589     Cu        0.961095        0.440652        0.034706        0.000000
Cu590     Cu        0.530692        0.442782        0.035886        0.000000
H591       H        0.722576        0.057390        0.050166        0.000000
H592       H        0.800404        0.099565        0.063726        0.000000
H593       H        0.862801        0.112341        0.011009        0.000000
H594       H        0.832277        0.150174        0.028417        0.000000
H595       H        0.817779        0.115043        0.490790        0.000000
H596       H        0.875233        0.062671        0.071332        0.000000
H597       H        0.856743        0.107027        0.095697        0.000000
H598       H        0.840079        0.052728        0.105039        0.000000
H599       H        0.858288        0.052948        0.477583        0.000000
H600       H        0.872482        0.499795        0.476015        0.000000
H601       H        0.886655        0.030172        0.017233        0.000000
H602       H        0.862826        0.333554        0.030766        0.000000
H603       H        0.882280        0.362665        0.489463        0.000000
H604       H        0.846377        0.326819        0.481394        0.000000
H605       H        0.783731        0.325843        0.469727        0.000000
H606       H        0.792855        0.309977        0.020674        0.000000
H607       H        0.750815        0.332549        0.005671        0.000000
H608       H        0.743230        0.405296        0.013857        0.000000
H609       H        0.722281        0.461180        0.090812        0.000000
H610       H        0.658459        0.445607        0.093391        0.000000
H611       H        0.619231        0.005682        0.463796        0.000000
H612       H        0.656353        0.494134        0.434406        0.000000
H613       H        0.628534        0.450245        0.452304        0.000000
H614       H        0.711487        0.495805        0.468097        0.000000
H615       H        0.997315        0.172849        0.170156        0.000000
H616       H        0.975987        0.234537        0.182315        0.000000
H617       H        0.523746        0.248967        0.227383        0.000000
H618       H        0.548994        0.278625        0.191348        0.000000
H619       H        0.542839        0.220987        0.188417        0.000000
H620       H        0.997490        0.329049        0.182622        0.000000
H621       H        0.957263        0.311257        0.157722        0.000000
H622       H        0.964937        0.298787        0.208962        0.000000
H623       H        0.543778        0.340293        0.089116        0.000000
H624       H        0.506715        0.352650        0.118807        0.000000
H625       H        0.543761        0.320629        0.137859        0.000000
H626       H        0.520449        0.359878        0.455698        0.000000
H627       H        0.974402        0.367165        0.466968        0.000000
H628       H        0.985312        0.332400        0.430048        0.000000
H629       H        0.512523        0.217942        0.433451        0.000000
H630       H        0.523338        0.273419        0.421266        0.000000
H631       H        0.977344        0.255853        0.421399        0.000000
H632       H        0.500381        0.195913        0.497097        0.000000
H633       H        0.553045        0.151199        0.055162        0.000000
H634       H        0.550804        0.076188        0.035157        0.000000
H635       H        0.907077        0.086452        0.066114        0.000000
H636       H        0.929042        0.035222        0.066474        0.000000
H637       H        0.917224        0.064133        0.020397        0.000000
H638       H        0.940623        0.150219        0.069275        0.000000
H639       H        0.961789        0.047410        0.408881        0.000000
H640       H        0.936818        0.008325        0.438549        0.000000
H641       H        0.982394        0.022279        0.450748        0.000000
H642       H        0.951779        0.040877        0.331497        0.000000
H643       H        0.923106        0.494398        0.321926        0.000000
H644       H        0.920260        0.019576        0.366230        0.000000
H645       H        0.523743        0.386169        0.411596        0.000000
H646       H        0.536284        0.358610        0.350053        0.000000
H647       H        0.532884        0.362245        0.280576        0.000000
H648       H        0.958708        0.024940        0.223818        0.000000
H649       H        0.971058        0.499442        0.160056        0.000000
H650       H        0.523520        0.377009        0.150288        0.000000
H651       H        0.526424        0.365690        0.219819        0.000000
C652       C        0.772256        0.030102        0.036397        0.000000
C653       C        0.808617        0.040271        0.033444        0.000000
C654       C        0.822295        0.083358        0.049299        0.000000
C655       C        0.834581        0.116836        0.017774        0.000000
C656       C        0.850386        0.075837        0.082079        0.000000
C657       C        0.831400        0.008982        0.018284        0.000000
C658       C        0.864202        0.023883        0.496856        0.000000
C659       C        0.820036        0.464769        0.017184        0.000000
C660       C        0.844086        0.429581        0.014474        0.000000
C661       C        0.881281        0.434905        0.024934        0.000000
C662       C        0.831391        0.387358        0.006908        0.000000
C663       C        0.857099        0.350551        0.001982        0.000000
C664       C        0.794593        0.379141        0.006651        0.000000
C665       C        0.779650        0.334384        0.000317        0.000000
C666       C        0.771232        0.412821        0.013266        0.000000
C667       C        0.783369        0.455367        0.019281        0.000000
C668       C        0.759425        0.488559        0.027630        0.000000
C669       C        0.720963        0.479639        0.029215        0.000000
C670       C        0.705912        0.465450        0.064480        0.000000
C671       C        0.669690        0.456605        0.065873        0.000000
C672       C        0.648133        0.461822        0.032066        0.000000
C673       C        0.610813        0.452263        0.034602        0.000000
C674       C        0.663079        0.476176        0.496363        0.000000
C675       C        0.640580        0.481920        0.459547        0.000000
C676       C        0.699579        0.484949        0.495289        0.000000
C677       C        0.997446        0.208882        0.114826        0.000000
C678       C        0.500381        0.251804        0.127859        0.000000
C679       C        0.995518        0.259046        0.171454        0.000000
C680       C        0.529858        0.251588        0.195868        0.000000
C681       C        0.977941        0.302251        0.180307        0.000000
C682       C        0.507418        0.286314        0.099696        0.000000
C683       C        0.526004        0.327301        0.112190        0.000000
C684       C        0.501603        0.279643        0.059046        0.000000
C685       C        0.997858        0.306177        0.489702        0.000000
C686       C        0.994455        0.343295        0.458927        0.000000
C687       C        0.501319        0.262947        0.478474        0.000000
C688       C        0.503694        0.251960        0.436259        0.000000
C689       C        0.500383        0.228808        0.006813        0.000000
C690       C        0.999946        0.236381        0.046876        0.000000
C691       C        0.998398        0.201253        0.074943        0.000000
C692       C        0.996846        0.155603        0.063249        0.000000
C693       C        0.527806        0.134377        0.053958        0.000000
C694       C        0.526388        0.091502        0.042708        0.000000
C695       C        0.962552        0.090069        0.050887        0.000000
C696       C        0.927001        0.067651        0.050890        0.000000
C697       C        0.964428        0.133476        0.061750        0.000000
C698       C        0.997818        0.314612        0.030061        0.000000
C699       C        0.993972        0.068820        0.040531        0.000000
C700       C        0.975388        0.479451        0.402496        0.000000
C701       C        0.963190        0.016207        0.426540        0.000000
C702       C        0.967931        0.480237        0.361513        0.000000
C703       C        0.939528        0.010706        0.344233        0.000000
C704       C        0.986066        0.450921        0.337873        0.000000
C705       C        0.505709        0.416611        0.356958        0.000000
C706       C        0.509211        0.413271        0.397636        0.000000
C707       C        0.521737        0.385259        0.335407        0.000000
C708       C        0.519589        0.387542        0.294916        0.000000
C709       C        0.502082        0.422241        0.274335        0.000000
C710       C        0.985870        0.454563        0.296097        0.000000
C711       C        0.970724        0.495784        0.237166        0.000000
C712       C        0.984813        0.464376        0.214314        0.000000
C713       C        0.983234        0.470374        0.173462        0.000000
C714       C        0.512694        0.401758        0.167777        0.000000
C715       C        0.514459        0.395523        0.208401        0.000000
C716       C        0.500701        0.426799        0.232656        0.000000
C717       C        0.994620        0.444248        0.420683        0.000000
C718       C        0.997170        0.439185        0.149909        0.000000
C719       C        0.996714        0.438417        0.106509        0.000000
C720       C        0.994680        0.020804        0.036997        0.000000
C721       C        0.995075        0.445015        0.464082        0.000000
C722       C        0.997108        0.362629        0.033595        0.000000
N723       N        0.912145        0.439153        0.033873        0.000000
N724       N        0.579643        0.444283        0.036716        0.000000
N725       N        0.971620        0.490060        0.276514        0.000000
O726       O        0.748955        0.062071        0.047655        0.000000
O727       O        0.994426        0.172454        0.140822        0.000000
O728       O        0.524652        0.446172        0.479147        0.000000
O729       O        0.525986        0.439062        0.092443        0.000000
O730       O        0.524343        0.005590        0.036311        0.000000
O731       O        0.526294        0.379644        0.035278        0.000000
O732       O        0.965493        0.003789        0.035313        0.000000
O733       O        0.967135        0.437261        0.091445        0.000000
O734       O        0.965802        0.444371        0.478149        0.000000
O735       O        0.967445        0.377843        0.034280        0.000000
Cu736     Cu        0.961095        0.440652        0.534706        0.000000
Cu737     Cu        0.530692        0.442782        0.535886        0.000000
H738       H        0.722576        0.057390        0.550166        0.000000
H739       H        0.800404        0.099565        0.563726        0.000000
H740       H        0.862801        0.112341        0.511009        0.000000
H741       H        0.832277        0.150174        0.528417        0.000000
H742       H        0.817779        0.115043        0.990790        0.000000
H743       H        0.875233        0.062671        0.571332        0.000000
H744       H        0.856743        0.107027        0.595697        0.000000
H745       H        0.840079        0.052728        0.605039        0.000000
H746       H        0.858288        0.052948        0.977583        0.000000
H747       H        0.872482        0.499795        0.976015        0.000000
H748       H        0.886655        0.030172        0.517233        0.000000
H749       H        0.862826        0.333554        0.530766        0.000000
H750       H        0.882280        0.362665        0.989463        0.000000
H751       H        0.846377        0.326819        0.981394        0.000000
H752       H        0.783731        0.325843        0.969727        0.000000
H753       H        0.792855        0.309977        0.520674        0.000000
H754       H        0.750815        0.332549        0.505671        0.000000
H755       H        0.743230        0.405296        0.513857        0.000000
H756       H        0.722281        0.461180        0.590812        0.000000
H757       H        0.658459        0.445607        0.593391        0.000000
H758       H        0.619231        0.005682        0.963796        0.000000
H759       H        0.656353        0.494134        0.934406        0.000000
H760       H        0.628534        0.450245        0.952304        0.000000
H761       H        0.711487        0.495805        0.968097        0.000000
H762       H        0.997315        0.172849        0.670156        0.000000
H763       H        0.975987        0.234537        0.682315        0.000000
H764       H        0.523746        0.248967        0.727383        0.000000
H765       H        0.548994        0.278625        0.691348        0.000000
H766       H        0.542839        0.220987        0.688417        0.000000
H767       H        0.997490        0.329049        0.682622        0.000000
H768       H        0.957263        0.311257        0.657722        0.000000
H769       H        0.964937        0.298787        0.708962        0.000000
H770       H        0.543778        0.340293        0.589116        0.000000
H771       H        0.506715        0.352650        0.618807        0.000000
H772       H        0.543761        0.320629        0.637859        0.000000
H773       H        0.520449        0.359878        0.955698        0.000000
H774       H        0.974402        0.367165        0.966968        0.000000
H775       H        0.985312        0.332400        0.930048        0.000000
H776       H        0.512523        0.217942        0.933451        0.000000
H777       H        0.523338        0.273419        0.921266        0.000000
H778       H        0.977344        0.255853        0.921399        0.000000
H779       H        0.500381        0.195913        0.997097        0.000000
H780       H        0.553045        0.151199        0.555162        0.000000
H781       H        0.550804        0.076188        0.535157        0.000000
H782       H        0.907077        0.086452        0.566114        0.000000
H783       H        0.929042        0.035222        0.566474        0.000000
H784       H        0.917224        0.064133        0.520397        0.000000
H785       H        0.940623        0.150219        0.569275        0.000000
H786       H        0.961789        0.047410        0.908881        0.000000
H787       H        0.936818        0.008325        0.938549        0.000000
H788       H        0.982394        0.022279        0.950748        0.000000
H789       H        0.951779        0.040877        0.831497        0.000000
H790       H        0.923106        0.494398        0.821926        0.000000
H791       H        0.920260        0.019576        0.866230        0.000000
H792       H        0.523743        0.386169        0.911596        0.000000
H793       H        0.536284        0.358610        0.850053        0.000000
H794       H        0.532884        0.362245        0.780576        0.000000
H795       H        0.958708        0.024940        0.723818        0.000000
H796       H        0.971058        0.499442        0.660056        0.000000
H797       H        0.523520        0.377009        0.650288        0.000000
H798       H        0.526424        0.365690        0.719819        0.000000
C799       C        0.772256        0.030102        0.536397        0.000000
C800       C        0.808617        0.040271        0.533444        0.000000
C801       C        0.822295        0.083358        0.549299        0.000000
C802       C        0.834581        0.116836        0.517774        0.000000
C803       C        0.850386        0.075837        0.582079        0.000000
C804       C        0.831400        0.008982        0.518284        0.000000
C805       C        0.864202        0.023883        0.996856        0.000000
C806       C        0.820036        0.464769        0.517184        0.000000
C807       C        0.844086        0.429581        0.514474        0.000000
C808       C        0.881281        0.434905        0.524934        0.000000
C809       C        0.831391        0.387358        0.506908        0.000000
C810       C        0.857099        0.350551        0.501982        0.000000
C811       C        0.794593        0.379141        0.506651        0.000000
C812       C        0.779650        0.334384        0.500317        0.000000
C813       C        0.771232        0.412821        0.513266        0.000000
C814       C        0.783369        0.455367        0.519281        0.000000
C815       C        0.759425        0.488559        0.527630        0.000000
C816       C        0.720963        0.479639        0.529215        0.000000
C817       C        0.705912        0.465450        0.564480        0.000000
C818       C        0.669690        0.456605        0.565873        0.000000
C819       C        0.648133        0.461822        0.532066        0.000000
C820       C        0.610813        0.452263        0.534602        0.000000
C821       C        0.663079        0.476176        0.996363        0.000000
C822       C        0.640580        0.481920        0.959547        0.000000
C823       C        0.699579        0.484949        0.995289        0.000000
C824       C        0.997446        0.208882        0.614826        0.000000
C825       C        0.500381        0.251804        0.627859        0.000000
C826       C        0.995518        0.259046        0.671454        0.000000
C827       C        0.529858        0.251588        0.695868        0.000000
C828       C        0.977941        0.302251        0.680307        0.000000
C829       C        0.507418        0.286314        0.599696        0.000000
C830       C        0.526004        0.327301        0.612190        0.000000
C831       C        0.501603        0.279643        0.559046        0.000000
C832       C        0.997858        0.306177        0.989702        0.000000
C833       C        0.994455        0.343295        0.958927        0.000000
C834       C        0.501319        0.262947        0.978474        0.000000
C835       C        0.503694        0.251960        0.936259        0.000000
C836       C        0.500383        0.228808        0.506813        0.000000
C837       C        0.999946        0.236381        0.546876        0.000000
C838       C        0.998398        0.201253        0.574943        0.000000
C839       C        0.996846        0.155603        0.563249        0.000000
C840       C        0.527806        0.134377        0.553958        0.000000
C841       C        0.526388        0.091502        0.542708        0.000000
C842       C        0.962552        0.090069        0.550887        0.000000
C843       C        0.927001        0.067651        0.550890        0.000000
C844       C        0.964428        0.133476        0.561750        0.000000
C845       C        0.997818        0.314612        0.530061        0.000000
C846       C        0.993972        0.068820        0.540531        0.000000
C847       C        0.975388        0.479451        0.902496        0.000000
C848       C        0.963190        0.016207        0.926540        0.000000
C849       C        0.967931        0.480237        0.861513        0.000000
C850       C        0.939528        0.010706        0.844233        0.000000
C851       C        0.986066        0.450921        0.837873        0.000000
C852       C        0.505709        0.416611        0.856958        0.000000
C853       C        0.509211        0.413271        0.897636        0.000000
C854       C        0.521737        0.385259        0.835407        0.000000
C855       C        0.519589        0.387542        0.794916        0.000000
C856       C        0.502082        0.422241        0.774335        0.000000
C857       C        0.985870        0.454563        0.796097        0.000000
C858       C        0.970724        0.495784        0.737166        0.000000
C859       C        0.984813        0.464376        0.714314        0.000000
C860       C        0.983234        0.470374        0.673462        0.000000
C861       C        0.512694        0.401758        0.667777        0.000000
C862       C        0.514459        0.395523        0.708401        0.000000
C863       C        0.500701        0.426799        0.732656        0.000000
C864       C        0.994620        0.444248        0.920683        0.000000
C865       C        0.997170        0.439185        0.649909        0.000000
C866       C        0.996714        0.438417        0.606509        0.000000
C867       C        0.994680        0.020804        0.536997        0.000000
C868       C        0.995075        0.445015        0.964082        0.000000
C869       C        0.997108        0.362629        0.533595        0.000000
N870       N        0.912145        0.439153        0.533873        0.000000
N871       N        0.579643        0.444283        0.536716        0.000000
N872       N        0.971620        0.490060        0.776514        0.000000
O873       O        0.748955        0.062071        0.547655        0.000000
O874       O        0.994426        0.172454        0.640822        0.000000
O875       O        0.524652        0.446172        0.979147        0.000000
O876       O        0.525986        0.439062        0.592443        0.000000
O877       O        0.524343        0.005590        0.536311        0.000000
O878       O        0.526294        0.379644        0.535278        0.000000
O879       O        0.965493        0.003789        0.535313        0.000000
O880       O        0.967135        0.437261        0.591445        0.000000
O881       O        0.965802        0.444371        0.978149        0.000000
O882       O        0.967445        0.377843        0.534280        0.000000
Cu883     Cu        0.961095        0.940652        0.034706        0.000000
Cu884     Cu        0.530692        0.942782        0.035886        0.000000
H885       H        0.722576        0.557390        0.050166        0.000000
H886       H        0.800404        0.599565        0.063726        0.000000
H887       H        0.862801        0.612341        0.011009        0.000000
H888       H        0.832277        0.650174        0.028417        0.000000
H889       H        0.817779        0.615043        0.490790        0.000000
H890       H        0.875233        0.562671        0.071332        0.000000
H891       H        0.856743        0.607027        0.095697        0.000000
H892       H        0.840079        0.552728        0.105039        0.000000
H893       H        0.858288        0.552948        0.477583        0.000000
H894       H        0.872482        0.999795        0.476015        0.000000
H895       H        0.886655        0.530172        0.017233        0.000000
H896       H        0.862826        0.833554        0.030766        0.000000
H897       H        0.882280        0.862665        0.489463        0.000000
H898       H        0.846377        0.826819        0.481394        0.000000
H899       H        0.783731        0.825843        0.469727        0.000000
H900       H        0.792855        0.809977        0.020674        0.000000
H901       H        0.750815        0.832549        0.005671        0.000000
H902       H        0.743230        0.905296        0.013857        0.000000
H903       H        0.722281        0.961180        0.090812        0.000000
H904       H        0.658459        0.945607        0.093391        0.000000
H905       H        0.619231        0.505682        0.463796        0.000000
H906       H        0.656353        0.994134        0.434406        0.000000
H907       H        0.628534        0.950245        0.452304        0.000000
H908       H        0.711487        0.995805        0.468097        0.000000
H909       H        0.997315        0.672849        0.170156        0.000000
H910       H        0.975987        0.734537        0.182315        0.000000
H911       H        0.523746        0.748967        0.227383        0.000000
H912       H        0.548994        0.778625        0.191348        0.000000
H913       H        0.542839        0.720987        0.188417        0.000000
H914       H        0.997490        0.829049        0.182622        0.000000
H915       H        0.957263        0.811257        0.157722        0.000000
H916       H        0.964937        0.798787        0.208962        0.000000
H917       H        0.543778        0.840293        0.089116        0.000000
H918       H        0.506715        0.852650        0.118807        0.000000
H919       H        0.543761        0.820629        0.137859        0.000000
H920       H        0.520449        0.859878        0.455698        0.000000
H921       H        0.974402        0.867165        0.466968        0.000000
H922       H        0.985312        0.832400        0.430048        0.000000
H923       H        0.512523        0.717942        0.433451        0.000000
H924       H        0.523338        0.773419        0.421266        0.000000
H925       H        0.977344        0.755853        0.421399        0.000000
H926       H        0.500381        0.695913        0.497097        0.000000
H927       H        0.553045        0.651199        0.055162        0.000000
H928       H        0.550804        0.576188        0.035157        0.000000
H929       H        0.907077        0.586452        0.066114        0.000000
H930       H        0.929042        0.535222        0.066474        0.000000
H931       H        0.917224        0.564133        0.020397        0.000000
H932       H        0.940623        0.650219        0.069275        0.000000
H933       H        0.961789        0.547410        0.408881        0.000000
H934       H        0.936818        0.508325        0.438549        0.000000
H935       H        0.982394        0.522279        0.450748        0.000000
H936       H        0.951779        0.540877        0.331497        0.000000
H937       H        0.923106        0.994398        0.321926        0.000000
H938       H        0.920260        0.519576        0.366230        0.000000
H939       H        0.523743        0.886169        0.411596        0.000000
H940       H        0.536284        0.858610        0.350053        0.000000
H941       H        0.532884        0.862245        0.280576        0.000000
H942       H        0.958708        0.524940        0.223818        0.000000
H943       H        0.971058        0.999442        0.160056        0.000000
H944       H        0.523520        0.877009        0.150288        0.000000
H945       H        0.526424        0.865690        0.219819        0.000000
C946       C        0.772256        0.530102        0.036397        0.000000
C947       C        0.808617        0.540271        0.033444        0.000000
C948       C        0.822295        0.583358        0.049299        0.000000
C949       C        0.834581        0.616836        0.017774        0.000000
C950       C        0.850386        0.575837        0.082079        0.000000
C951       C        0.831400        0.508982        0.018284        0.000000
C952       C        0.864202        0.523883        0.496856        0.000000
C953       C        0.820036        0.964769        0.017184        0.000000
C954       C        0.844086        0.929581        0.014474        0.000000
C955       C        0.881281        0.934905        0.024934        0.000000
C956       C        0.831391        0.887358        0.006908        0.000000
C957       C        0.857099        0.850551        0.001982        0.000000
C958       C        0.794593        0.879141        0.006651        0.000000
C959       C        0.779650        0.834384        0.000317        0.000000
C960       C        0.771232        0.912821        0.013266        0.000000
C961       C        0.783369        0.955367        0.019281        0.000000
C962       C        0.759425        0.988559        0.027630        0.000000
C963       C        0.720963        0.979639        0.029215        0.000000
C964       C        0.705912        0.965450        0.064480        0.000000
C965       C        0.669690        0.956605        0.065873        0.000000
C966       C        0.648133        0.961822        0.032066        0.000000
C967       C        0.610813        0.952263        0.034602        0.000000
C968       C        0.663079        0.976176        0.496363        0.000000
C969       C        0.640580        0.981920        0.459547        0.000000
C970       C        0.699579        0.984949        0.495289        0.000000
C971       C        0.997446        0.708882        0.114826        0.000000
C972       C        0.500381        0.751804        0.127859        0.000000
C973       C        0.995518        0.759046        0.171454        0.000000
C974       C        0.529858        0.751588        0.195868        0.000000
C975       C        0.977941        0.802250        0.180307        0.000000
C976       C        0.507418        0.786314        0.099696        0.000000
C977       C        0.526004        0.827301        0.112190        0.000000
C978       C        0.501603        0.779643        0.059046        0.000000
C979       C        0.997858        0.806177        0.489702        0.000000
C980       C        0.994455        0.843295        0.458927        0.000000
C981       C        0.501319        0.762947        0.478474        0.000000
C982       C        0.503694        0.751960        0.436259        0.000000
C983       C        0.500383        0.728808        0.006813        0.000000
C984       C        0.999946        0.736381        0.046876        0.000000
C985       C        0.998398        0.701253        0.074943        0.000000
C986       C        0.996846        0.655603        0.063249        0.000000
C987       C        0.527806        0.634377        0.053958        0.000000
C988       C        0.526388        0.591502        0.042708        0.000000
C989       C        0.962552        0.590069        0.050887        0.000000
C990       C        0.927001        0.567651        0.050890        0.000000
C991       C        0.964428        0.633476        0.061750        0.000000
C992       C        0.997818        0.814612        0.030061        0.000000
C993       C        0.993972        0.568820        0.040531        0.000000
C994       C        0.975388        0.979451        0.402496        0.000000
C995       C        0.963190        0.516207        0.426540        0.000000
C996       C        0.967931        0.980237        0.361513        0.000000
C997       C        0.939528        0.510706        0.344233        0.000000
C998       C        0.986066        0.950921        0.337873        0.000000
C999       C        0.505709        0.916611        0.356958        0.000000
C1000      C        0.509211        0.913271        0.397636        0.000000
C1001      C        0.521737        0.885259        0.335407        0.000000
C1002      C        0.519589        0.887542        0.294916        0.000000
C1003      C        0.502082        0.922241        0.274335        0.000000
C1004      C        0.985870        0.954563        0.296097        0.000000
C1005      C        0.970724        0.995784        0.237166        0.000000
C1006      C        0.984813        0.964376        0.214314        0.000000
C1007      C        0.983234        0.970374        0.173462        0.000000
C1008      C        0.512694        0.901758        0.167777        0.000000
C1009      C        0.514459        0.895523        0.208401        0.000000
C1010      C        0.500701        0.926799        0.232656        0.000000
C1011      C        0.994620        0.944248        0.420683        0.000000
C1012      C        0.997170        0.939185        0.149909        0.000000
C1013      C        0.996714        0.938417        0.106509        0.000000
C1014      C        0.994680        0.520804        0.036997        0.000000
C1015      C        0.995075        0.945015        0.464082        0.000000
C1016      C        0.997108        0.862629        0.033595        0.000000
N1017      N        0.912145        0.939153        0.033873        0.000000
N1018      N        0.579643        0.944283        0.036716        0.000000
N1019      N        0.971620        0.990060        0.276514        0.000000
O1020      O        0.748955        0.562071        0.047655        0.000000
O1021      O        0.994426        0.672454        0.140822        0.000000
O1022      O        0.524652        0.946172        0.479147        0.000000
O1023      O        0.525986        0.939062        0.092443        0.000000
O1024      O        0.524343        0.505590        0.036311        0.000000
O1025      O        0.526294        0.879644        0.035278        0.000000
O1026      O        0.965493        0.503789        0.035313        0.000000
O1027      O        0.967135        0.937261        0.091445        0.000000
O1028      O        0.965802        0.944371        0.478149        0.000000
O1029      O        0.967445        0.877843        0.034280        0.000000
Cu1030    Cu        0.961095        0.940652        0.534706        0.000000
Cu1031    Cu        0.530692        0.942782        0.535886        0.000000
H1032      H        0.722576        0.557390        0.550166        0.000000
H1033      H        0.800404        0.599565        0.563726        0.000000
H1034      H        0.862801        0.612341        0.511009        0.000000
H1035      H        0.832277        0.650174        0.528417        0.000000
H1036      H        0.817779        0.615043        0.990790        0.000000
H1037      H        0.875233        0.562671        0.571332        0.000000
H1038      H        0.856743        0.607027        0.595697        0.000000
H1039      H        0.840079        0.552728        0.605039        0.000000
H1040      H        0.858288        0.552948        0.977583        0.000000
H1041      H        0.872482        0.999795        0.976015        0.000000
H1042      H        0.886655        0.530172        0.517233        0.000000
H1043      H        0.862826        0.833554        0.530766        0.000000
H1044      H        0.882280        0.862665        0.989463        0.000000
H1045      H        0.846377        0.826819        0.981394        0.000000
H1046      H        0.783731        0.825843        0.969727        0.000000
H1047      H        0.792855        0.809977        0.520674        0.000000
H1048      H        0.750815        0.832549        0.505671        0.000000
H1049      H        0.743230        0.905296        0.513857        0.000000
H1050      H        0.722281        0.961180        0.590812        0.000000
H1051      H        0.658459        0.945607        0.593391        0.000000
H1052      H        0.619231        0.505682        0.963796        0.000000
H1053      H        0.656353        0.994134        0.934406        0.000000
H1054      H        0.628534        0.950245        0.952304        0.000000
H1055      H        0.711487        0.995805        0.968097        0.000000
H1056      H        0.997315        0.672849        0.670156        0.000000
H1057      H        0.975987        0.734537        0.682315        0.000000
H1058      H        0.523746        0.748967        0.727383        0.000000
H1059      H        0.548994        0.778625        0.691348        0.000000
H1060      H        0.542839        0.720987        0.688417        0.000000
H1061      H        0.997490        0.829049        0.682622        0.000000
H1062      H        0.957263        0.811257        0.657722        0.000000
H1063      H        0.964937        0.798787        0.708962        0.000000
H1064      H        0.543778        0.840293        0.589116        0.000000
H1065      H        0.506715        0.852650        0.618807        0.000000
H1066      H        0.543761        0.820629        0.637859        0.000000
H1067      H        0.520449        0.859878        0.955698        0.000000
H1068      H        0.974402        0.867165        0.966968        0.000000
H1069      H        0.985312        0.832400        0.930048        0.000000
H1070      H        0.512523        0.717942        0.933451        0.000000
H1071      H        0.523338        0.773419        0.921266        0.000000
H1072      H        0.977344        0.755853        0.921399        0.000000
H1073      H        0.500381        0.695913        0.997097        0.000000
H1074      H        0.553045        0.651199        0.555162        0.000000
H1075      H        0.550804        0.576188        0.535157        0.000000
H1076      H        0.907077        0.586452        0.566114        0.000000
H1077      H        0.929042        0.535222        0.566474        0.000000
H1078      H        0.917224        0.564133        0.520397        0.000000
H1079      H        0.940623        0.650219        0.569275        0.000000
H1080      H        0.961789        0.547410        0.908881        0.000000
H1081      H        0.936818        0.508325        0.938549        0.000000
H1082      H        0.982394        0.522279        0.950748        0.000000
H1083      H        0.951779        0.540877        0.831497        0.000000
H1084      H        0.923106        0.994398        0.821926        0.000000
H1085      H        0.920260        0.519576        0.866230        0.000000
H1086      H        0.523743        0.886169        0.911596        0.000000
H1087      H        0.536284        0.858610        0.850053        0.000000
H1088      H        0.532884        0.862245        0.780576        0.000000
H1089      H        0.958708        0.524940        0.723818        0.000000
H1090      H        0.971058        0.999442        0.660056        0.000000
H1091      H        0.523520        0.877009        0.650288        0.000000
H1092      H        0.526424        0.865690        0.719819        0.000000
C1093      C        0.772256        0.530102        0.536397        0.000000
C1094      C        0.808617        0.540271        0.533444        0.000000
C1095      C        0.822295        0.583358        0.549299        0.000000
C1096      C        0.834581        0.616836        0.517774        0.000000
C1097      C        0.850386        0.575837        0.582079        0.000000
C1098      C        0.831400        0.508982        0.518284        0.000000
C1099      C        0.864202        0.523883        0.996856        0.000000
C1100      C        0.820036        0.964769        0.517184        0.000000
C1101      C        0.844086        0.929581        0.514474        0.000000
C1102      C        0.881281        0.934905        0.524934        0.000000
C1103      C        0.831391        0.887358        0.506908        0.000000
C1104      C        0.857099        0.850551        0.501982        0.000000
C1105      C        0.794593        0.879141        0.506651        0.000000
C1106      C        0.779650        0.834384        0.500317        0.000000
C1107      C        0.771232        0.912821        0.513266        0.000000
C1108      C        0.783369        0.955367        0.519281        0.000000
C1109      C        0.759425        0.988559        0.527630        0.000000
C1110      C        0.720963        0.979639        0.529215        0.000000
C1111      C        0.705912        0.965450        0.564480        0.000000
C1112      C        0.669690        0.956605        0.565873        0.000000
C1113      C        0.648133        0.961822        0.532066        0.000000
C1114      C        0.610813        0.952263        0.534602        0.000000
C1115      C        0.663079        0.976176        0.996363        0.000000
C1116      C        0.640580        0.981920        0.959547        0.000000
C1117      C        0.699579        0.984949        0.995289        0.000000
C1118      C        0.997446        0.708882        0.614826        0.000000
C1119      C        0.500381        0.751804        0.627859        0.000000
C1120      C        0.995518        0.759046        0.671454        0.000000
C1121      C        0.529858        0.751588        0.695868        0.000000
C1122      C        0.977941        0.802250        0.680307        0.000000
C1123      C        0.507418        0.786314        0.599696        0.000000
C1124      C        0.526004        0.827301        0.612190        0.000000
C1125      C        0.501603        0.779643        0.559046        0.000000
C1126      C        0.997858        0.806177        0.989702        0.000000
C1127      C        0.994455        0.843295        0.958927        0.000000
C1128      C        0.501319        0.762947        0.978474        0.000000
C1129      C        0.503694        0.751960        0.936259        0.000000
C1130      C        0.500383        0.728808        0.506813        0.000000
C1131      C        0.999946        0.736381        0.546876        0.000000
C1132      C        0.998398        0.701253        0.574943        0.000000
C1133      C        0.996846        0.655603        0.563249        0.000000
C1134      C        0.527806        0.634377        0.553958        0.000000
C1135      C        0.526388        0.591502        0.542708        0.000000
C1136      C        0.962552        0.590069        0.550887        0.000000
C1137      C        0.927001        0.567651        0.550890        0.000000
C1138      C        0.964428        0.633476        0.561750        0.000000
C1139      C        0.997818        0.814612        0.530061        0.000000
C1140      C        0.993972        0.568820        0.540531        0.000000
C1141      C        0.975388        0.979451        0.902496        0.000000
C1142      C        0.963190        0.516207        0.926540        0.000000
C1143      C        0.967931        0.980237        0.861513        0.000000
C1144      C        0.939528        0.510706        0.844233        0.000000
C1145      C        0.986066        0.950921        0.837873        0.000000
C1146      C        0.505709        0.916611        0.856958        0.000000
C1147      C        0.509211        0.913271        0.897636        0.000000
C1148      C        0.521737        0.885259        0.835407        0.000000
C1149      C        0.519589        0.887542        0.794916        0.000000
C1150      C        0.502082        0.922241        0.774335        0.000000
C1151      C        0.985870        0.954563        0.796097        0.000000
C1152      C        0.970724        0.995784        0.737166        0.000000
C1153      C        0.984813        0.964376        0.714314        0.000000
C1154      C        0.983234        0.970374        0.673462        0.000000
C1155      C        0.512694        0.901758        0.667777        0.000000
C1156      C        0.514459        0.895523        0.708401        0.000000
C1157      C        0.500701        0.926799        0.732656        0.000000
C1158      C        0.994620        0.944248        0.920683        0.000000
C1159      C        0.997170        0.939185        0.649909        0.000000
C1160      C        0.996714        0.938417        0.606509        0.000000
C1161      C        0.994680        0.520804        0.536997        0.000000
C1162      C        0.995075        0.945015        0.964082        0.000000
C1163      C        0.997108        0.862629        0.533595        0.000000
N1164      N        0.912145        0.939153        0.533873        0.000000
N1165      N        0.579643        0.944283        0.536716        0.000000
N1166      N        0.971620        0.990060        0.776514        0.000000
O1167      O        0.748955        0.562071        0.547655        0.000000
O1168      O        0.994426        0.672454        0.640822        0.000000
O1169      O        0.524652        0.946172        0.979147        0.000000
O1170      O        0.525986        0.939062        0.592443        0.000000
O1171      O        0.524343        0.505590        0.536311        0.000000
O1172      O        0.526294        0.879644        0.535278        0.000000
O1173      O        0.965493        0.503789        0.535313        0.000000
O1174      O        0.967135        0.937261        0.591445        0.000000
O1175      O        0.965802        0.944371        0.978149        0.000000
O1176      O        0.967445        0.877843        0.534280        0.000000
loop_
_geom_bond_atom_site_label_1
_geom_bond_atom_site_label_2
_geom_bond_distance
_ccdc_geom_bond_type
Cu1        N135    1.85   S
Cu1        O145   1.951   S
Cu1        O147   1.951   S
Cu1       Cu590    2.63   S
Cu1        O438   1.951   S
Cu1        O293   1.951   S
Cu2        N136    1.85   S
Cu2        O141   1.951   S
Cu2        O143   1.951   S
Cu2       Cu589  23.766   S
Cu2        O436   1.951   S
Cu2        O287   1.951   S
H3         O138   1.012   S
H4          C66    1.11   S
H5          C67   1.109   S
H6          C67   1.112   S
H7         C214   1.111   S
H8          C68   1.106   S
H9          C68   1.111   S
H10         C68   1.111   S
H11         C70   1.105   S
H12        C364   1.109   S
H13        C217   1.107   S
H14         C75    1.11   S
H15        C222    1.11   S
H16        C222   1.109   S
H17        C224    1.11   S
H18         C77    1.11   S
H19         C77   1.111   S
H20         C78   1.083   S
H21         C82   1.083   S
H22         C83   1.084   S
H23        C381    1.11   S
H24         C87   1.111   S
H25         C87    1.11   S
H26         C88   1.084   S
H27        O139    1.01   S
H28         C91    1.11   S
H29         C92   1.111   S
H30         C92   1.107   S
H31         C92    1.11   S
H32         C93   1.108   S
H33         C93   1.111   S
H34         C93   1.112   S
H35         C95    1.11   S
H36         C95   1.108   S
H37         C95   1.104   S
H38        C686    1.11   S
H39         C98   1.109   S
H40         C98   1.108   S
H41        C100   1.111   S
H42        C100    1.11   S
H43        C688    1.11   S
H44        C248   1.082   S
H45        C105   1.083   S
H46        C106   1.083   S
H47        C108   1.111   S
H48        C108    1.11   S
H49        C108    1.11   S
H50        C109   1.084   S
H51        C113    1.11   S
H52        C113    1.11   S
H53        C113    1.11   S
H54        C115    1.11   S
H55        C409    1.11   S
H56        C115   1.109   S
H57        C118   1.085   S
H58        C119   1.084   S
H59        C120   1.077   S
H60        C417   1.083   S
H61        C125   1.084   S
H62        C126   1.083   S
H63        C127   1.077   S
C64        O138   1.401   S
C64         C65   1.413   A
C64        C374   1.409   A
C65         C66    1.54   S
C65         C69   1.424   A
C66         C68   1.534   S
C66         C67   1.535   S
C67        H154  23.781   S
C69        C217   1.516   S
C69        C365   1.427   A
C70        H306  25.145   S
C70        H160  23.524   S
C70        C216  23.073   S
C71         C72   1.427   S
C71         C79   1.417   A
C71        C363  24.817   A
C72         C73   1.451   S
C72         C74   1.417   A
C73        N135   1.206   T
C74         C75   1.517   S
C74         C76   1.412   A
C75        H162  23.337   S
C75        H163   23.53   S
C76         C77    1.51   S
C76         C78   1.398   A
C77        H164  24.134   S
C78         C79   1.408   S
C79         C80   1.415   A
C80         C81    1.48   S
C80        C358    24.6   A
C81         C82     1.4   A
C81        C235   1.401   A
C82         C83   1.396   A
C83         C84   1.401   A
C84         C85   1.443   S
C84        C233   1.413   A
C85        N136   1.205   T
C86         C87   1.506   S
C86         C88   1.405   A
C86        C231  23.627   A
C87        H317  25.165   S
C88        C228  23.818   A
C89        C103   1.402   A
C89        O139   1.403   S
C89        C678   1.419   A
C90         C94   1.428   A
C90        C677  22.394   A
C90        C679    1.54   S
C91         C93   1.539   S
C91        C678  22.352   S
C91        C680   1.537   S
C92        C679  21.758   S
C94         C96   1.431   A
C94         C95   1.515   S
C96        C690   1.417   A
C96        C698   1.433   S
C97         C98   1.519   S
C97        C687   1.412   A
C97        C257   1.422   A
C98        H626  22.049   S
C99        C100   1.509   S
C99        C685  22.429   A
C99        C248   1.396   A
C100       H631  22.045   S
C101       H191  23.673   S
C101       C246   23.65   A
C101       C690   1.406   S
C102       C103   1.413   A
C102       C684  22.408   A
C102       C689  22.437   S
C103       C104   1.482   S
C104       C109   1.399   A
C104       C693   1.397   A
C105       C106   1.395   A
C105       C692   22.94   A
C106       C699   1.408   A
C107       C109   1.407   A
C107       C108   1.507   S
C107       C111   1.422   A
C110       C134    1.49   S
C110       C684  21.036   S
C110       C244  24.254   A
C111       C132    1.49   S
C111       C694  23.161   A
C112       C129   1.417   A
C112       C114   1.425   A
C112       C407   1.516   S
C113       C406  24.959   S
C114       C116   1.434   A
C114       C409   1.518   S
C115       H349   24.19   S
C115       C408   24.03   S
C116       C122   1.432   S
C116       C705   1.417   A
C117       C119   1.397   S
C117       C118   1.397   A
C117       C704  21.322   A
C118       C717   1.396   A
C119       C120   1.387   A
C120       C121   1.408   S
C121       C128   1.429   S
C121       C710   1.426   A
C122       N137   1.359   A
C122       C709  22.372   A
C123       C124   1.394   S
C123       N137   1.352   A
C123       H354  24.567   S
C124       C125   1.404   A
C124       C716   1.417   A
C125       C130   1.401   A
C126       C127   1.397   A
C126       C718   1.401   A
C127       C128   1.416   A
C128       C712   21.27   A
C129       C133    1.49   S
C129       C706  22.367   A
C130       C131    1.49   S
C130       C714  21.285   A
C131       O145   1.219   A
C131       O729   1.219   A
C132       O144   1.219   A
C132       O730   1.219   A
C133       O146   1.219   A
C133       O728   1.219   A
C134       O147   1.219   A
C134       O731   1.219   A
O140      Cu149  24.395   S
O140       C721   23.27   A
O141       C719  22.099   A
O142      Cu296  25.692   S
O142       C720  23.291   A
O143       C722  23.282   A
O144      Cu295   25.04   S
O146      Cu148  24.185   S
Cu148      N282    1.85   S
Cu148      O292   1.951   S
Cu148     Cu737    2.63   S
Cu148      O294   1.951   S
Cu148      O585   1.951   S
Cu149     Cu736    2.63   S
Cu149      N283    1.85   S
Cu149      O583   1.951   S
Cu149      O288   1.951   S
Cu149      O290   1.951   S
H150       O285   1.012   S
H151       C213    1.11   S
H152       C214   1.109   S
H153       C214   1.112   S
H155       C215   1.106   S
H156       C215   1.111   S
H157       C215   1.111   S
H158       C217   1.105   S
H159       C511   1.109   S
H161       C222    1.11   S
H165       C224    1.11   S
H166       C224   1.111   S
H167       C225   1.083   S
H168       C229   1.083   S
H169       C230   1.084   S
H170       C528    1.11   S
H171       C234   1.111   S
H172       C234    1.11   S
H173       C235   1.084   S
H174       O286    1.01   S
H175       C238    1.11   S
H176       C239   1.111   S
H177       C239   1.107   S
H178       C239    1.11   S
H179       C240   1.108   S
H180       C240   1.111   S
H181       C240   1.112   S
H182       C242    1.11   S
H183       C242   1.108   S
H184       C242   1.104   S
H185       C833    1.11   S
H186       C245   1.109   S
H187       C245   1.108   S
H188       C247   1.111   S
H189       C247    1.11   S
H190       C835    1.11   S
H192       C252   1.083   S
H193       C253   1.083   S
H194       C255   1.111   S
H195       C255    1.11   S
H196       C255    1.11   S
H197       C256   1.084   S
H198       C260    1.11   S
H199       C260    1.11   S
H200       C260    1.11   S
H201       C262    1.11   S
H202       C556    1.11   S
H203       C262   1.109   S
H204       C265   1.085   S
H205       C266   1.084   S
H206       C267   1.077   S
H207       C564   1.083   S
H208       C272   1.084   S
H209       C273   1.083   S
H210       C274   1.077   S
C211       O285   1.401   S
C211       C212   1.413   A
C211       C521   1.409   A
C212       C213    1.54   S
C212       C216   1.424   A
C213       C215   1.534   S
C213       C214   1.535   S
C216       C512   1.427   A
C217       H453   1.109   S
C218       C510   1.427   A
C218       C219   1.427   S
C218       C226   1.417   A
C219       C220   1.451   S
C219       C221   1.417   A
C220       N282   1.206   T
C221       C222   1.517   S
C221       C223   1.412   A
C223       C224    1.51   S
C223       C225   1.398   A
C225       C226   1.408   S
C226       C227   1.415   A
C227       C505   1.409   A
C227       C228    1.48   S
C228       C229     1.4   A
C229       C230   1.396   A
C230       C231   1.401   A
C231       C232   1.443   S
C232       N283   1.205   T
C233       C234   1.506   S
C233       C235   1.405   A
C234       H464    1.11   S
C236       C250   1.402   A
C236       O286   1.403   S
C236       C825   1.419   A
C237       C824   1.419   A
C237       C241   1.428   A
C237       C826    1.54   S
C238       C825    1.54   S
C238       C827   1.537   S
C238       C240   1.539   S
C239       C826   1.537   S
C241       C243   1.431   A
C241       C242   1.515   S
C243       C837   1.417   A
C243       C845   1.433   S
C244       C245   1.519   S
C244       C834   1.412   A
C245       H773    1.11   S
C246       C832   1.412   A
C246       C247   1.509   S
C247       H778    1.11   S
C248       C837   1.406   S
C249       C831   1.417   A
C249       C836   1.406   S
C249       C250   1.413   A
C250       C251   1.482   S
C251       C840   1.397   A
C251       C256   1.399   A
C252       C839   1.397   A
C252       C253   1.395   A
C253       C846   1.408   A
C254       C256   1.407   A
C254       C255   1.507   S
C254       C258   1.422   A
C257       C831   1.433   S
C257       C281    1.49   S
C258       C841   1.408   A
C258       C279    1.49   S
C259       C276   1.417   A
C259       C261   1.425   A
C259       C554   1.516   S
C260       C553   1.516   S
C261       C556   1.518   S
C261       C263   1.434   A
C262       H496    1.11   S
C262       C555   1.518   S
C263       C269   1.432   S
C263       C852   1.417   A
C264       C851   1.417   A
C264       C266   1.397   S
C264       C265   1.397   A
C265       C864   1.396   A
C266       C267   1.387   A
C267       C268   1.408   S
C268       C275   1.429   S
C268       C857   1.426   A
C269       C856   1.426   A
C269       N284   1.359   A
C270       H501   1.083   S
C270       C271   1.394   S
C270       N284   1.352   A
C271       C863   1.417   A
C271       C272   1.404   A
C272       C277   1.401   A
C273       C274   1.397   A
C273       C865   1.401   A
C274       C275   1.416   A
C275       C859   1.417   A
C276       C853   1.396   A
C276       C280    1.49   S
C277       C861   1.401   A
C277       C278    1.49   S
C278       O876   1.219   A
C278       O292   1.219   A
C279       O877   1.219   A
C279       O291   1.219   A
C280       O875   1.219   A
C280       O293   1.219   A
C281       O878   1.219   A
C281       O294   1.219   A
O287       C868   1.219   A
O288       C866   1.219   A
O289      Cu443   1.951   S
O289       C867   1.219   A
O290       C869   1.219   A
O291      Cu442   1.951   S
Cu295      N429    1.85   S
Cu295      O439   1.951   S
Cu295     Cu884    2.63   S
Cu295      O441   1.951   S
Cu295      O587   1.951   S
Cu296     Cu883    2.63   S
Cu296      N430    1.85   S
Cu296      O435   1.951   S
Cu296      O437   1.951   S
Cu296      O581   1.951   S
H297       O432   1.012   S
H298       C360    1.11   S
H299       C361   1.109   S
H300       C361   1.112   S
H301       C508   1.111   S
H302       C362   1.106   S
H303       C362   1.111   S
H304       C362   1.111   S
H305       C364   1.105   S
H307       C511   1.107   S
H308       C369    1.11   S
H309       C516    1.11   S
H310       C516   1.109   S
H311       C518    1.11   S
H312       C371    1.11   S
H313       C371   1.111   S
H314       C372   1.083   S
H315       C376   1.083   S
H316       C377   1.084   S
H318       C381   1.111   S
H319       C381    1.11   S
H320       C382   1.084   S
H321       O433    1.01   S
H322       C385    1.11   S
H323       C386   1.111   S
H324       C386   1.107   S
H325       C386    1.11   S
H326       C387   1.108   S
H327       C387   1.111   S
H328       C387   1.112   S
H329       C389    1.11   S
H330       C389   1.108   S
H331       C389   1.104   S
H332       C980    1.11   S
H333       C392   1.109   S
H334       C392   1.108   S
H335       C394   1.111   S
H336       C394    1.11   S
H337       C982    1.11   S
H338       C542   1.082   S
H339       C399   1.083   S
H340       C400   1.083   S
H341       C402   1.111   S
H342       C402    1.11   S
H343       C402    1.11   S
H344       C403   1.084   S
H345       C407    1.11   S
H346       C407    1.11   S
H347       C407    1.11   S
H348       C409    1.11   S
H350       C409   1.109   S
H351       C412   1.085   S
H352       C413   1.084   S
H353       C414   1.077   S
H355       C419   1.084   S
H356       C420   1.083   S
H357       C421   1.077   S
C358       O432   1.401   S
C358       C359   1.413   A
C359       C360    1.54   S
C359       C363   1.424   A
C360       C362   1.534   S
C360       C361   1.535   S
C361       H448   1.111   S
C363       C511   1.516   S
C364       H454   1.107   S
C364       C510   1.516   S
C365       C366   1.427   S
C365       C373   1.417   A
C366       C367   1.451   S
C366       C368   1.417   A
C367       N429   1.206   T
C368       C369   1.517   S
C368       C370   1.412   A
C369       H456    1.11   S
C369       H457   1.109   S
C370       C371    1.51   S
C370       C372   1.398   A
C371       H458    1.11   S
C372       C373   1.408   S
C373       C374   1.415   A
C374       C375    1.48   S
C375       C376     1.4   A
C375       C529   1.401   A
C376       C377   1.396   A
C377       C378   1.401   A
C378       C379   1.443   S
C378       C527   1.413   A
C379       N430   1.205   T
C380       C525   1.413   A
C380       C381   1.506   S
C380       C382   1.405   A
C382       C522   1.401   A
C383       C397   1.402   A
C383       O433   1.403   S
C383       C972   1.419   A
C384       C971   1.419   A
C384       C388   1.428   A
C384       C973    1.54   S
C385       C972    1.54   S
C385       C974   1.537   S
C385       C387   1.539   S
C386       C973   1.537   S
C388       C390   1.431   A
C388       C389   1.515   S
C390       C984   1.417   A
C390       C992   1.433   S
C391       C392   1.519   S
C391       C981   1.412   A
C391       C551   1.422   A
C392       H920    1.11   S
C393       C979   1.412   A
C393       C394   1.509   S
C393       C542   1.396   A
C394       H925    1.11   S
C395       H485   1.082   S
C395       C540   1.396   A
C395       C984   1.406   S
C396       C978   1.417   A
C396       C983   1.406   S
C396       C397   1.413   A
C397       C398   1.482   S
C398       C987   1.397   A
C398       C403   1.399   A
C399       C986   1.397   A
C399       C400   1.395   A
C400       C993   1.408   A
C401       C403   1.407   A
C401       C402   1.507   S
C401       C405   1.422   A
C404       C978   1.433   S
C404       C538   1.422   A
C404       C428    1.49   S
C405       C988   1.408   A
C405       C426    1.49   S
C406       C423   1.417   A
C406       C408   1.425   A
C408       C410   1.434   A
C410       C416   1.432   S
C410       C999   1.417   A
C411       C998   1.417   A
C411       C413   1.397   S
C411       C412   1.397   A
C412      C1011   1.396   A
C413       C414   1.387   A
C414       C415   1.408   S
C415       C422   1.429   S
C415      C1004   1.426   A
C416      C1003   1.426   A
C416       N431   1.359   A
C417       C418   1.394   S
C417       N431   1.352   A
C418      C1010   1.417   A
C418       C419   1.404   A
C419       C424   1.401   A
C420       C421   1.397   A
C420      C1012   1.401   A
C421       C422   1.416   A
C422      C1006   1.417   A
C423      C1000   1.396   A
C423       C427    1.49   S
C424      C1008   1.401   A
C424       C425    1.49   S
C425      O1023   1.219   A
C425       O439   1.219   A
C426      O1024   1.219   A
C426       O438   1.219   A
C427      O1022   1.219   A
C427       O440   1.219   A
C428      O1025   1.219   A
C428       O441   1.219   A
O434      Cu443   1.951   S
O434      C1015   1.219   A
O435      C1013   1.219   A
O436      C1014   1.219   A
O437      C1016   1.219   A
O440      Cu442   1.951   S
Cu442      N576    1.85   S
Cu442      O586   1.951   S
Cu442    Cu1031    2.63   S
Cu442      O588   1.951   S
Cu443    Cu1030    2.63   S
Cu443      N577    1.85   S
Cu443      O582   1.951   S
Cu443      O584   1.951   S
H444       O579   1.012   S
H445       C507    1.11   S
H446       C508   1.109   S
H447       C508   1.112   S
H449       C509   1.106   S
H450       C509   1.111   S
H451       C509   1.111   S
H452       C511   1.105   S
H455       C516    1.11   S
H459       C518    1.11   S
H460       C518   1.111   S
H461       C519   1.083   S
H462       C523   1.083   S
H463       C524   1.084   S
H465       C528   1.111   S
H466       C528    1.11   S
H467       C529   1.084   S
H468       O580    1.01   S
H469       C532    1.11   S
H470       C533   1.111   S
H471       C533   1.107   S
H472       C533    1.11   S
H473       C534   1.108   S
H474       C534   1.111   S
H475       C534   1.112   S
H476       C536    1.11   S
H477       C536   1.108   S
H478       C536   1.104   S
H479      C1127    1.11   S
H480       C539   1.109   S
H481       C539   1.108   S
H482       C541   1.111   S
H483       C541    1.11   S
H484      C1129    1.11   S
H486       C546   1.083   S
H487       C547   1.083   S
H488       C549   1.111   S
H489       C549    1.11   S
H490       C549    1.11   S
H491       C550   1.084   S
H492       C554    1.11   S
H493       C554    1.11   S
H494       C554    1.11   S
H495       C556    1.11   S
H497       C556   1.109   S
H498       C559   1.085   S
H499       C560   1.084   S
H500       C561   1.077   S
H502       C566   1.084   S
H503       C567   1.083   S
H504       C568   1.077   S
C505       O579   1.401   S
C505       C506   1.413   A
C506       C507    1.54   S
C506       C510   1.424   A
C507       C509   1.534   S
C507       C508   1.535   S
C512       C513   1.427   S
C512       C520   1.417   A
C513       C514   1.451   S
C513       C515   1.417   A
C514       N576   1.206   T
C515       C516   1.517   S
C515       C517   1.412   A
C517       C518    1.51   S
C517       C519   1.398   A
C519       C520   1.408   S
C520       C521   1.415   A
C521       C522    1.48   S
C522       C523     1.4   A
C523       C524   1.396   A
C524       C525   1.401   A
C525       C526   1.443   S
C526       N577   1.205   T
C527       C528   1.506   S
C527       C529   1.405   A
C530       C544   1.402   A
C530       O580   1.403   S
C530      C1119   1.419   A
C531      C1118   1.419   A
C531       C535   1.428   A
C531      C1120    1.54   S
C532      C1119    1.54   S
C532      C1121   1.537   S
C532       C534   1.539   S
C533      C1120   1.537   S
C535       C537   1.431   A
C535       C536   1.515   S
C537      C1131   1.417   A
C537      C1139   1.433   S
C538       C539   1.519   S
C538      C1128   1.412   A
C539      H1067    1.11   S
C540      C1126   1.412   A
C540       C541   1.509   S
C541      H1072    1.11   S
C542      C1131   1.406   S
C543      C1125   1.417   A
C543      C1130   1.406   S
C543       C544   1.413   A
C544       C545   1.482   S
C545      C1134   1.397   A
C545       C550   1.399   A
C546      C1133   1.397   A
C546       C547   1.395   A
C547      C1140   1.408   A
C548       C550   1.407   A
C548       C549   1.507   S
C548       C552   1.422   A
C551      C1125   1.433   S
C551       C575    1.49   S
C552      C1135   1.408   A
C552       C573    1.49   S
C553       C570   1.417   A
C553       C555   1.425   A
C555       C557   1.434   A
C557       C563   1.432   S
C557      C1146   1.417   A
C558      C1145   1.417   A
C558       C560   1.397   S
C558       C559   1.397   A
C559      C1158   1.396   A
C560       C561   1.387   A
C561       C562   1.408   S
C562       C569   1.429   S
C562      C1151   1.426   A
C563      C1150   1.426   A
C563       N578   1.359   A
C564       C565   1.394   S
C564       N578   1.352   A
C565      C1157   1.417   A
C565       C566   1.404   A
C566       C571   1.401   A
C567       C568   1.397   A
C567      C1159   1.401   A
C568       C569   1.416   A
C569      C1153   1.417   A
C570      C1147   1.396   A
C570       C574    1.49   S
C571      C1155   1.401   A
C571       C572    1.49   S
C572      O1170   1.219   A
C572       O586   1.219   A
C573      O1171   1.219   A
C573       O585   1.219   A
C574      O1169   1.219   A
C574       O587   1.219   A
C575      O1172   1.219   A
C575       O588   1.219   A
O581      C1162   1.219   A
O582      C1160   1.219   A
O583      C1161   1.219   A
O584      C1163   1.219   A
Cu589      N723    1.85   S
Cu589      O733   1.951   S
Cu589      O735   1.951   S
Cu589     O1026   1.951   S
Cu589      O881   1.951   S
Cu590      N724    1.85   S
Cu590     O1024   1.951   S
Cu590      O729   1.951   S
Cu590      O731   1.951   S
Cu590      O875   1.951   S
H591       O726   1.012   S
H592       C654    1.11   S
H593       C655   1.109   S
H594       C655   1.112   S
H595       C802   1.111   S
H596       C656   1.106   S
H597       C656   1.111   S
H598       C656   1.111   S
H599       C658   1.105   S
H600       C952   1.109   S
H601       C805   1.107   S
H602       C663    1.11   S
H603       C810    1.11   S
H604       C810   1.109   S
H605       C812    1.11   S
H606       C665    1.11   S
H607       C665   1.111   S
H608       C666   1.083   S
H609       C670   1.083   S
H610       C671   1.084   S
H611       C969    1.11   S
H612       C675   1.111   S
H613       C675    1.11   S
H614       C676   1.084   S
H615       O727    1.01   S
H616       C679    1.11   S
H617       C680   1.111   S
H618       C680   1.107   S
H619       C680    1.11   S
H620       C681   1.108   S
H621       C681   1.111   S
H622       C681   1.112   S
H623       C683    1.11   S
H624       C683   1.108   S
H625       C683   1.104   S
H627       C686   1.109   S
H628       C686   1.108   S
H629       C688   1.111   S
H630       C688    1.11   S
H632       C836   1.082   S
H633       C693   1.083   S
H634       C694   1.083   S
H635       C696   1.111   S
H636       C696    1.11   S
H637       C696    1.11   S
H638       C697   1.084   S
H639       C701    1.11   S
H640       C701    1.11   S
H641       C701    1.11   S
H642       C703    1.11   S
H643       C997    1.11   S
H644       C703   1.109   S
H645       C706   1.085   S
H646       C707   1.084   S
H647       C708   1.077   S
H648      C1005   1.083   S
H649       C713   1.084   S
H650       C714   1.083   S
H651       C715   1.077   S
C652       O726   1.401   S
C652       C653   1.413   A
C652       C962   1.409   A
C653       C654    1.54   S
C653       C657   1.424   A
C654       C656   1.534   S
C654       C655   1.535   S
C655       H742   1.111   S
C657       C805   1.516   S
C657       C953   1.427   A
C658       H894   1.109   S
C658       H748   1.107   S
C658       C804   1.516   S
C659       C951   1.427   A
C659       C660   1.427   S
C659       C667   1.417   A
C660       C661   1.451   S
C660       C662   1.417   A
C661       N723   1.206   T
C662       C663   1.517   S
C662       C664   1.412   A
C663       H750    1.11   S
C663       H751   1.109   S
C664       C665    1.51   S
C664       C666   1.398   A
C665       H752    1.11   S
C666       C667   1.408   S
C667       C668   1.415   A
C668       C946   1.409   A
C668       C669    1.48   S
C669       C670     1.4   A
C669       C823   1.401   A
C670       C671   1.396   A
C671       C672   1.401   A
C672       C673   1.443   S
C672       C821   1.413   A
C673       N724   1.205   T
C674       C819   1.413   A
C674       C675   1.506   S
C674       C676   1.405   A
C675       H905    1.11   S
C676       C816   1.401   A
C677       C691   1.402   A
C677       O727   1.403   S
C678       C682   1.428   A
C679       C681   1.539   S
C682       C684   1.431   A
C682       C683   1.515   S
C685       C686   1.519   S
C685       C845   1.422   A
C687       C688   1.509   S
C687       C836   1.396   A
C689       H779   1.082   S
C689       C834   1.396   A
C690       C691   1.413   A
C691       C692   1.482   S
C692       C697   1.399   A
C693       C694   1.395   A
C695       C697   1.407   A
C695       C696   1.507   S
C695       C699   1.422   A
C698       C832   1.422   A
C698       C722    1.49   S
C699       C720    1.49   S
C700       C717   1.417   A
C700       C702   1.425   A
C700       C995   1.516   S
C701       C994   1.516   S
C702       C997   1.518   S
C702       C704   1.434   A
C703       H937    1.11   S
C703       C996   1.518   S
C704       C710   1.432   S
C705       C707   1.397   S
C705       C706   1.397   A
C707       C708   1.387   A
C708       C709   1.408   S
C709       C716   1.429   S
C710       N725   1.359   A
C711       H942   1.083   S
C711       C712   1.394   S
C711       N725   1.352   A
C712       C713   1.404   A
C713       C718   1.401   A
C714       C715   1.397   A
C715       C716   1.416   A
C717       C721    1.49   S
C718       C719    1.49   S
C719       O733   1.219   A
C720       O732   1.219   A
C721       O734   1.219   A
C722       O735   1.219   A
O728      Cu737   1.951   S
O730      Cu884   1.951   S
O732      Cu883   1.951   S
O734      Cu736   1.951   S
Cu736      N870    1.85   S
Cu736      O880   1.951   S
Cu736      O882   1.951   S
Cu736     O1173   1.951   S
Cu737      N871    1.85   S
Cu737     O1171   1.951   S
Cu737      O876   1.951   S
Cu737      O878   1.951   S
H738       O873   1.012   S
H739       C801    1.11   S
H740       C802   1.109   S
H741       C802   1.112   S
H743       C803   1.106   S
H744       C803   1.111   S
H745       C803   1.111   S
H746       C805   1.105   S
H747      C1099   1.109   S
H749       C810    1.11   S
H753       C812    1.11   S
H754       C812   1.111   S
H755       C813   1.083   S
H756       C817   1.083   S
H757       C818   1.084   S
H758      C1116    1.11   S
H759       C822   1.111   S
H760       C822    1.11   S
H761       C823   1.084   S
H762       O874    1.01   S
H763       C826    1.11   S
H764       C827   1.111   S
H765       C827   1.107   S
H766       C827    1.11   S
H767       C828   1.108   S
H768       C828   1.111   S
H769       C828   1.112   S
H770       C830    1.11   S
H771       C830   1.108   S
H772       C830   1.104   S
H774       C833   1.109   S
H775       C833   1.108   S
H776       C835   1.111   S
H777       C835    1.11   S
H780       C840   1.083   S
H781       C841   1.083   S
H782       C843   1.111   S
H783       C843    1.11   S
H784       C843    1.11   S
H785       C844   1.084   S
H786       C848    1.11   S
H787       C848    1.11   S
H788       C848    1.11   S
H789       C850    1.11   S
H790      C1144    1.11   S
H791       C850   1.109   S
H792       C853   1.085   S
H793       C854   1.084   S
H794       C855   1.077   S
H795      C1152   1.083   S
H796       C860   1.084   S
H797       C861   1.083   S
H798       C862   1.077   S
C799       O873   1.401   S
C799       C800   1.413   A
C799      C1109   1.409   A
C800       C801    1.54   S
C800       C804   1.424   A
C801       C803   1.534   S
C801       C802   1.535   S
C804      C1100   1.427   A
C805      H1041   1.109   S
C806      C1098   1.427   A
C806       C807   1.427   S
C806       C814   1.417   A
C807       C808   1.451   S
C807       C809   1.417   A
C808       N870   1.206   T
C809       C810   1.517   S
C809       C811   1.412   A
C811       C812    1.51   S
C811       C813   1.398   A
C813       C814   1.408   S
C814       C815   1.415   A
C815      C1093   1.409   A
C815       C816    1.48   S
C816       C817     1.4   A
C817       C818   1.396   A
C818       C819   1.401   A
C819       C820   1.443   S
C820       N871   1.205   T
C821       C822   1.506   S
C821       C823   1.405   A
C822      H1052    1.11   S
C824       C838   1.402   A
C824       O874   1.403   S
C825       C829   1.428   A
C826       C828   1.539   S
C829       C831   1.431   A
C829       C830   1.515   S
C832       C833   1.519   S
C834       C835   1.509   S
C837       C838   1.413   A
C838       C839   1.482   S
C839       C844   1.399   A
C840       C841   1.395   A
C842       C844   1.407   A
C842       C843   1.507   S
C842       C846   1.422   A
C845       C869    1.49   S
C846       C867    1.49   S
C847       C864   1.417   A
C847       C849   1.425   A
C847      C1142   1.516   S
C848      C1141   1.516   S
C849      C1144   1.518   S
C849       C851   1.434   A
C850      H1084    1.11   S
C850      C1143   1.518   S
C851       C857   1.432   S
C852       C854   1.397   S
C852       C853   1.397   A
C854       C855   1.387   A
C855       C856   1.408   S
C856       C863   1.429   S
C857       N872   1.359   A
C858      H1089   1.083   S
C858       C859   1.394   S
C858       N872   1.352   A
C859       C860   1.404   A
C860       C865   1.401   A
C861       C862   1.397   A
C862       C863   1.416   A
C864       C868    1.49   S
C865       C866    1.49   S
C866       O880   1.219   A
C867       O879   1.219   A
C868       O881   1.219   A
C869       O882   1.219   A
O877     Cu1031   1.951   S
O879     Cu1030   1.951   S
Cu883     N1017    1.85   S
Cu883     O1027   1.951   S
Cu883     O1029   1.951   S
Cu883     O1175   1.951   S
Cu884     N1018    1.85   S
Cu884     O1023   1.951   S
Cu884     O1025   1.951   S
Cu884     O1169   1.951   S
H885      O1020   1.012   S
H886       C948    1.11   S
H887       C949   1.109   S
H888       C949   1.112   S
H889      C1096   1.111   S
H890       C950   1.106   S
H891       C950   1.111   S
H892       C950   1.111   S
H893       C952   1.105   S
H895      C1099   1.107   S
H896       C957    1.11   S
H897      C1104    1.11   S
H898      C1104   1.109   S
H899      C1106    1.11   S
H900       C959    1.11   S
H901       C959   1.111   S
H902       C960   1.083   S
H903       C964   1.083   S
H904       C965   1.084   S
H906       C969   1.111   S
H907       C969    1.11   S
H908       C970   1.084   S
H909      O1021    1.01   S
H910       C973    1.11   S
H911       C974   1.111   S
H912       C974   1.107   S
H913       C974    1.11   S
H914       C975   1.108   S
H915       C975   1.111   S
H916       C975   1.112   S
H917       C977    1.11   S
H918       C977   1.108   S
H919       C977   1.104   S
H921       C980   1.109   S
H922       C980   1.108   S
H923       C982   1.111   S
H924       C982    1.11   S
H926      C1130   1.082   S
H927       C987   1.083   S
H928       C988   1.083   S
H929       C990   1.111   S
H930       C990    1.11   S
H931       C990    1.11   S
H932       C991   1.084   S
H933       C995    1.11   S
H934       C995    1.11   S
H935       C995    1.11   S
H936       C997    1.11   S
H938       C997   1.109   S
H939      C1000   1.085   S
H940      C1001   1.084   S
H941      C1002   1.077   S
H943      C1007   1.084   S
H944      C1008   1.083   S
H945      C1009   1.077   S
C946      O1020   1.401   S
C946       C947   1.413   A
C947       C948    1.54   S
C947       C951   1.424   A
C948       C950   1.534   S
C948       C949   1.535   S
C949      H1036   1.111   S
C951      C1099   1.516   S
C952      H1042   1.107   S
C952      C1098   1.516   S
C953       C954   1.427   S
C953       C961   1.417   A
C954       C955   1.451   S
C954       C956   1.417   A
C955      N1017   1.206   T
C956       C957   1.517   S
C956       C958   1.412   A
C957      H1044    1.11   S
C957      H1045   1.109   S
C958       C959    1.51   S
C958       C960   1.398   A
C959      H1046    1.11   S
C960       C961   1.408   S
C961       C962   1.415   A
C962       C963    1.48   S
C963       C964     1.4   A
C963      C1117   1.401   A
C964       C965   1.396   A
C965       C966   1.401   A
C966       C967   1.443   S
C966      C1115   1.413   A
C967      N1018   1.205   T
C968      C1113   1.413   A
C968       C969   1.506   S
C968       C970   1.405   A
C970      C1110   1.401   A
C971       C985   1.402   A
C971      O1021   1.403   S
C972       C976   1.428   A
C973       C975   1.539   S
C976       C978   1.431   A
C976       C977   1.515   S
C979       C980   1.519   S
C979      C1139   1.422   A
C981       C982   1.509   S
C981      C1130   1.396   A
C983      H1073   1.082   S
C983      C1128   1.396   A
C984       C985   1.413   A
C985       C986   1.482   S
C986       C991   1.399   A
C987       C988   1.395   A
C989       C991   1.407   A
C989       C990   1.507   S
C989       C993   1.422   A
C992      C1126   1.422   A
C992      C1016    1.49   S
C993      C1014    1.49   S
C994      C1011   1.417   A
C994       C996   1.425   A
C996       C998   1.434   A
C998      C1004   1.432   S
C999      C1001   1.397   S
C999      C1000   1.397   A
C1001     C1002   1.387   A
C1002     C1003   1.408   S
C1003     C1010   1.429   S
C1004     N1019   1.359   A
C1005     C1006   1.394   S
C1005     N1019   1.352   A
C1006     C1007   1.404   A
C1007     C1012   1.401   A
C1008     C1009   1.397   A
C1009     C1010   1.416   A
C1011     C1015    1.49   S
C1012     C1013    1.49   S
C1013     O1027   1.219   A
C1014     O1026   1.219   A
C1015     O1028   1.219   A
C1016     O1029   1.219   A
O1022    Cu1031   1.951   S
O1028    Cu1030   1.951   S
Cu1030    N1164    1.85   S
Cu1030    O1174   1.951   S
Cu1030    O1176   1.951   S
Cu1031    N1165    1.85   S
Cu1031    O1170   1.951   S
Cu1031    O1172   1.951   S
H1032     O1167   1.012   S
H1033     C1095    1.11   S
H1034     C1096   1.109   S
H1035     C1096   1.112   S
H1037     C1097   1.106   S
H1038     C1097   1.111   S
H1039     C1097   1.111   S
H1040     C1099   1.105   S
H1043     C1104    1.11   S
H1047     C1106    1.11   S
H1048     C1106   1.111   S
H1049     C1107   1.083   S
H1050     C1111   1.083   S
H1051     C1112   1.084   S
H1053     C1116   1.111   S
H1054     C1116    1.11   S
H1055     C1117   1.084   S
H1056     O1168    1.01   S
H1057     C1120    1.11   S
H1058     C1121   1.111   S
H1059     C1121   1.107   S
H1060     C1121    1.11   S
H1061     C1122   1.108   S
H1062     C1122   1.111   S
H1063     C1122   1.112   S
H1064     C1124    1.11   S
H1065     C1124   1.108   S
H1066     C1124   1.104   S
H1068     C1127   1.109   S
H1069     C1127   1.108   S
H1070     C1129   1.111   S
H1071     C1129    1.11   S
H1074     C1134   1.083   S
H1075     C1135   1.083   S
H1076     C1137   1.111   S
H1077     C1137    1.11   S
H1078     C1137    1.11   S
H1079     C1138   1.084   S
H1080     C1142    1.11   S
H1081     C1142    1.11   S
H1082     C1142    1.11   S
H1083     C1144    1.11   S
H1085     C1144   1.109   S
H1086     C1147   1.085   S
H1087     C1148   1.084   S
H1088     C1149   1.077   S
H1090     C1154   1.084   S
H1091     C1155   1.083   S
H1092     C1156   1.077   S
C1093     O1167   1.401   S
C1093     C1094   1.413   A
C1094     C1095    1.54   S
C1094     C1098   1.424   A
C1095     C1097   1.534   S
C1095     C1096   1.535   S
C1100     C1101   1.427   S
C1100     C1108   1.417   A
C1101     C1102   1.451   S
C1101     C1103   1.417   A
C1102     N1164   1.206   T
C1103     C1104   1.517   S
C1103     C1105   1.412   A
C1105     C1106    1.51   S
C1105     C1107   1.398   A
C1107     C1108   1.408   S
C1108     C1109   1.415   A
C1109     C1110    1.48   S
C1110     C1111     1.4   A
C1111     C1112   1.396   A
C1112     C1113   1.401   A
C1113     C1114   1.443   S
C1114     N1165   1.205   T
C1115     C1116   1.506   S
C1115     C1117   1.405   A
C1118     C1132   1.402   A
C1118     O1168   1.403   S
C1119     C1123   1.428   A
C1120     C1122   1.539   S
C1123     C1125   1.431   A
C1123     C1124   1.515   S
C1126     C1127   1.519   S
C1128     C1129   1.509   S
C1131     C1132   1.413   A
C1132     C1133   1.482   S
C1133     C1138   1.399   A
C1134     C1135   1.395   A
C1136     C1138   1.407   A
C1136     C1137   1.507   S
C1136     C1140   1.422   A
C1139     C1163    1.49   S
C1140     C1161    1.49   S
C1141     C1158   1.417   A
C1141     C1143   1.425   A
C1143     C1145   1.434   A
C1145     C1151   1.432   S
C1146     C1148   1.397   S
C1146     C1147   1.397   A
C1148     C1149   1.387   A
C1149     C1150   1.408   S
C1150     C1157   1.429   S
C1151     N1166   1.359   A
C1152     C1153   1.394   S
C1152     N1166   1.352   A
C1153     C1154   1.404   A
C1154     C1159   1.401   A
C1155     C1156   1.397   A
C1156     C1157   1.416   A
C1158     C1162    1.49   S
C1159     C1160    1.49   S
C1160     O1174   1.219   A
C1161     O1173   1.219   A
C1162     O1175   1.219   A
C1163     O1176   1.219   A
