data_functionalizedCrystal
_audit_creation_method	'MofGen! by Chris Wilmer'
_symmetry_space_group_name_H-M	'P1'
_symmetry_Int_Tables_number	1
_symmetry_cell_setting	triclinic
loop_
_symmetry_equiv_pos_as_xyz
  x,y,z
_cell_length_a	12.759401
_cell_length_b	12.759399
_cell_length_c	12.759393
_cell_angle_alpha	89.967969
_cell_angle_beta	89.980163
_cell_angle_gamma	90.016641
loop_
_atom_site_label
_atom_site_type_symbol
_atom_site_fract_x
_atom_site_fract_y
_atom_site_fract_z
Zn1	Zn	1.606252	-0.418161	-0.594017
Zn2	Zn	1.939585	-0.084828	-0.260684
Zn3	Zn	2.272919	0.248506	0.072650
Zn4	Zn	1.606145	-0.593880	-0.418336
Zn5	Zn	1.939478	-0.260547	-0.085003
Zn6	Zn	2.272812	0.072787	0.248331
Zn7	Zn	1.430554	-0.418220	-0.418352
Zn8	Zn	1.763887	-0.084887	-0.085019
Zn9	Zn	2.097221	0.248446	0.248314
Zn10	Zn	1.430541	-0.593803	-0.593973
Zn11	Zn	1.763875	-0.260470	-0.260640
Zn12	Zn	2.097208	0.072863	0.072693
O13	O	1.518373	-0.506016	-0.506170
O14	O	1.851706	-0.172683	-0.172836
O15	O	2.185040	0.160650	0.160497
O16	O	1.753259	-0.441478	-0.570724
O17	O	2.086592	-0.108145	-0.237391
O18	O	2.419925	0.225189	0.095942
O19	O	1.582813	-0.570635	-0.271317
O20	O	1.916147	-0.237302	0.062016
O21	O	2.249480	0.096031	0.395350
O22	O	1.453911	-0.271191	-0.441680
O23	O	1.787244	0.062142	-0.108346
O24	O	2.120577	0.395475	0.224987
O25	O	1.753180	-0.570578	-0.441652
O26	O	2.086514	-0.237245	-0.108319
O27	O	2.419847	0.096089	0.225015
O28	O	1.582995	-0.271148	-0.570740
O29	O	1.916329	0.062185	-0.237407
O30	O	2.249662	0.395519	0.095927
O31	O	1.453807	-0.441579	-0.271329
O32	O	1.787141	-0.108246	0.062004
O33	O	2.120474	0.225088	0.395338
O34	O	1.283531	-0.441505	-0.441637
O35	O	1.616865	-0.108171	-0.108304
O36	O	1.950198	0.225162	0.225029
O37	O	1.453889	-0.570447	-0.741000
O38	O	1.787222	-0.237114	-0.407667
O39	O	2.120556	0.096220	-0.074333
O40	O	1.283522	-0.570504	-0.570665
O41	O	1.616855	-0.237171	-0.237332
O42	O	1.950189	0.096162	0.096002
O43	O	1.582983	-0.441403	-0.741032
O44	O	1.916316	-0.108070	-0.407699
O45	O	2.249650	0.225263	-0.074366
O46	O	1.582801	-0.740891	-0.441609
O47	O	1.916134	-0.407558	-0.108276
O48	O	2.249468	-0.074224	0.225057
O49	O	1.453785	-0.740834	-0.570649
O50	O	1.787119	-0.407501	-0.237316
O51	O	2.120452	-0.074168	0.096017
C52	C	1.245406	-0.506003	-0.506149
C53	C	1.578739	-0.172670	-0.172815
C54	C	1.912072	0.160663	0.160518
C55	C	1.128629	-0.506023	-0.506165
C56	C	1.461962	-0.172690	-0.172831
C57	C	1.795296	0.160644	0.160502
C58	C	1.518309	-0.778984	-0.506146
C59	C	1.851642	-0.445650	-0.172812
C60	C	2.184975	-0.112317	0.160521
C61	C	1.518377	-0.895760	-0.506171
C62	C	1.851711	-0.562427	-0.172837
C63	C	2.185044	-0.229094	0.160496
C64	C	1.073790	-0.573296	-0.573244
C65	C	1.407123	-0.239962	-0.239911
C66	C	1.740456	0.093371	0.093423
C67	C	0.964066	-0.573300	-0.573265
C68	C	1.297399	-0.239966	-0.239931
C69	C	1.630732	0.093367	0.093402
C70	C	0.964030	-0.438756	-0.439118
C71	C	1.297363	-0.105422	-0.105785
C72	C	1.630697	0.227911	0.227548
C73	C	1.073752	-0.438747	-0.439104
C74	C	1.407085	-0.105414	-0.105770
C75	C	1.740419	0.227919	0.227563
C76	C	1.585632	-0.950617	-0.439056
C77	C	1.918966	-0.617283	-0.105723
C78	C	2.252299	-0.283950	0.227611
C79	C	1.585700	-1.060341	-0.439091
C80	C	1.919033	-0.727007	-0.105758
C81	C	2.252366	-0.393674	0.227575
C82	C	1.451248	-1.060342	-0.573359
C83	C	1.784581	-0.727009	-0.240025
C84	C	2.117915	-0.393675	0.093308
C85	C	1.451187	-0.950620	-0.573328
C86	C	1.784520	-0.617287	-0.239995
C87	C	2.117853	-0.283953	0.093339
C88	C	1.792406	-0.506030	-0.506191
C89	C	2.125740	-0.172697	-0.172858
C90	C	2.459073	0.160637	0.160475
C91	C	1.909183	-0.506036	-0.506200
C92	C	2.242516	-0.172702	-0.172867
C93	C	2.575850	0.160631	0.160466
C94	C	1.518446	-0.505910	-0.780203
C95	C	1.851780	-0.172577	-0.446870
C96	C	2.185113	0.160757	-0.113536
C97	C	1.518478	-0.505865	-0.896980
C98	C	1.851811	-0.172531	-0.563647
C99	C	2.185144	0.160802	-0.230313
C100	C	1.518466	-0.231983	-0.506217
C101	C	1.851800	0.101350	-0.172883
C102	C	2.185133	0.434684	0.160450
C103	C	1.518506	-0.115206	-0.506237
C104	C	1.851839	0.218127	-0.172903
C105	C	2.185173	0.551460	0.160430
C106	C	1.451328	-0.438653	-0.951848
C107	C	1.784662	-0.105319	-0.618514
C108	C	2.117995	0.228014	-0.285181
C109	C	1.451353	-0.438620	-1.061572
C110	C	1.784686	-0.105287	-0.728238
C111	C	2.118020	0.228046	-0.394905
C112	C	1.585685	-0.573015	-1.061551
C113	C	1.919018	-0.239682	-0.728217
C114	C	2.252352	0.093652	-0.394884
C115	C	1.585654	-0.573052	-0.951829
C116	C	1.918988	-0.239718	-0.618495
C117	C	2.252321	0.093615	-0.285162
C118	C	1.518360	-0.506046	-0.233202
C119	C	1.851694	-0.172713	0.100131
C120	C	2.185027	0.160620	0.433464
C121	C	1.518533	-0.505796	-0.116426
C122	C	1.851866	-0.172462	0.216907
C123	C	2.185199	0.160871	0.550241
H124	H	1.118467	-0.628073	-0.627852
H125	H	1.451801	-0.294740	-0.294519
H126	H	1.785134	0.038593	0.038815
H127	H	0.919336	-0.383984	-0.384518
H128	H	1.252669	-0.050650	-0.051185
H129	H	1.586002	0.282683	0.282149
H130	H	1.640379	-0.627715	-1.106222
H131	H	1.973712	-0.294382	-0.772889
H132	H	2.307045	0.038951	-0.439555
H133	H	1.396672	-0.383891	-1.106240
H134	H	1.730006	-0.050557	-0.772907
H135	H	2.063339	0.282776	-0.439574
H136	H	1.396543	-1.105022	-0.628034
H137	H	1.729876	-0.771689	-0.294701
H138	H	2.063209	-0.438356	0.038632
H139	H	1.396629	-0.383945	-0.907193
H140	H	1.729962	-0.050612	-0.573860
H141	H	2.063295	0.282722	-0.240526
H142	H	1.640467	-1.105000	-0.384441
H143	H	1.973800	-0.771667	-0.051108
H144	H	2.307134	-0.438333	0.282225
H145	H	1.118403	-0.383959	-0.384480
H146	H	1.451737	-0.050626	-0.051146
H147	H	1.785070	0.282707	0.282187
H148	H	1.396420	-0.905953	-0.627986
H149	H	1.729753	-0.572620	-0.294653
H150	H	2.063086	-0.239286	0.038681
H151	H	0.919420	-0.628078	-0.627889
H152	H	1.252754	-0.294745	-0.294555
H153	H	1.586087	0.038588	0.038778
H154	H	1.640344	-0.905952	-0.384374
H155	H	1.973678	-0.572619	-0.051041
H156	H	2.307011	-0.239286	0.282293
H157	H	1.640338	-0.627788	-0.907154
H158	H	1.973671	-0.294454	-0.573821
H159	H	2.307005	0.038879	-0.240487
