data_functionalizedCrystal
_audit_creation_method	'MofGen! by Chris Wilmer'
_symmetry_space_group_name_H-M	'P1'
_symmetry_Int_Tables_number	1
_symmetry_cell_setting	triclinic
loop_
_symmetry_equiv_pos_as_xyz
  x,y,z
_cell_length_a	12.759401
_cell_length_b	12.759399
_cell_length_c	12.759393
_cell_angle_alpha	89.967969
_cell_angle_beta	89.980163
_cell_angle_gamma	90.016641
loop_
_atom_site_label
_atom_site_type_symbol
_atom_site_fract_x
_atom_site_fract_y
_atom_site_fract_z
Zn1	Zn	1.606252	-0.418161	-0.594017
Zn2	Zn	2.106252	0.081839	-0.094017
Zn3	Zn	1.606145	-0.593880	-0.418336
Zn4	Zn	2.106145	-0.093880	0.081664
Zn5	Zn	1.430554	-0.418220	-0.418352
Zn6	Zn	1.930554	0.081780	0.081648
Zn7	Zn	1.430541	-0.593803	-0.593973
Zn8	Zn	1.930541	-0.093803	-0.093973
O9	O	1.518373	-0.506016	-0.506170
O10	O	2.018373	-0.006016	-0.006170
O11	O	1.753259	-0.441478	-0.570724
O12	O	2.253259	0.058522	-0.070724
O13	O	1.582813	-0.570635	-0.271317
O14	O	2.082813	-0.070635	0.228683
O15	O	1.453911	-0.271191	-0.441680
O16	O	1.953911	0.228809	0.058320
O17	O	1.753180	-0.570578	-0.441652
O18	O	2.253180	-0.070578	0.058348
O19	O	1.582995	-0.271148	-0.570740
O20	O	2.082995	0.228852	-0.070740
O21	O	1.453807	-0.441579	-0.271329
O22	O	1.953807	0.058421	0.228671
O23	O	1.283531	-0.441505	-0.441637
O24	O	1.783531	0.058495	0.058363
O25	O	1.453889	-0.570447	-0.741000
O26	O	1.953889	-0.070447	-0.241000
O27	O	1.283522	-0.570504	-0.570665
O28	O	1.783522	-0.070504	-0.070665
O29	O	1.582983	-0.441403	-0.741032
O30	O	2.082983	0.058597	-0.241032
O31	O	1.582801	-0.740891	-0.441609
O32	O	2.082801	-0.240891	0.058391
O33	O	1.453785	-0.740834	-0.570649
O34	O	1.953785	-0.240834	-0.070649
C35	C	1.245406	-0.506003	-0.506149
C36	C	1.745406	-0.006003	-0.006149
C37	C	1.128629	-0.506023	-0.506165
C38	C	1.628629	-0.006023	-0.006165
C39	C	1.518309	-0.778984	-0.506146
C40	C	2.018309	-0.278984	-0.006146
C41	C	1.518377	-0.895760	-0.506171
C42	C	2.018377	-0.395760	-0.006171
C43	C	1.073790	-0.573296	-0.573244
C44	C	1.573790	-0.073296	-0.073244
C45	C	0.964066	-0.573300	-0.573265
C46	C	1.464066	-0.073300	-0.073265
C47	C	0.964030	-0.438756	-0.439118
C48	C	1.464030	0.061244	0.060882
C49	C	1.073752	-0.438747	-0.439104
C50	C	1.573752	0.061253	0.060896
C51	C	1.585632	-0.950617	-0.439056
C52	C	2.085632	-0.450617	0.060944
C53	C	1.585700	-1.060341	-0.439091
C54	C	2.085700	-0.560341	0.060909
C55	C	1.451248	-1.060342	-0.573359
C56	C	1.951248	-0.560342	-0.073359
C57	C	1.451187	-0.950620	-0.573328
C58	C	1.951187	-0.450620	-0.073328
C59	C	1.792406	-0.506030	-0.506191
C60	C	2.292406	-0.006030	-0.006191
C61	C	1.909183	-0.506036	-0.506200
C62	C	2.409183	-0.006036	-0.006200
C63	C	1.518446	-0.505910	-0.780203
C64	C	2.018446	-0.005910	-0.280203
C65	C	1.518478	-0.505865	-0.896980
C66	C	2.018478	-0.005865	-0.396980
C67	C	1.518466	-0.231983	-0.506217
C68	C	2.018466	0.268017	-0.006217
C69	C	1.518506	-0.115206	-0.506237
C70	C	2.018506	0.384794	-0.006237
C71	C	1.451328	-0.438653	-0.951848
C72	C	1.951328	0.061347	-0.451848
C73	C	1.451353	-0.438620	-1.061572
C74	C	1.951353	0.061380	-0.561572
C75	C	1.585685	-0.573015	-1.061551
C76	C	2.085685	-0.073015	-0.561551
C77	C	1.585654	-0.573052	-0.951829
C78	C	2.085654	-0.073052	-0.451829
C79	C	1.518360	-0.506046	-0.233202
C80	C	2.018360	-0.006046	0.266798
C81	C	1.518533	-0.505796	-0.116426
C82	C	2.018533	-0.005796	0.383574
H83	H	1.118467	-0.628073	-0.627852
H84	H	1.618467	-0.128073	-0.127852
H85	H	0.919336	-0.383984	-0.384518
H86	H	1.419336	0.116016	0.115482
H87	H	1.640379	-0.627715	-1.106222
H88	H	2.140379	-0.127715	-0.606222
H89	H	1.396672	-0.383891	-1.106240
H90	H	1.896672	0.116109	-0.606240
H91	H	1.396543	-1.105022	-0.628034
H92	H	1.896543	-0.605022	-0.128034
H93	H	1.396629	-0.383945	-0.907193
H94	H	1.896629	0.116055	-0.407193
H95	H	1.640467	-1.105000	-0.384441
H96	H	2.140467	-0.605000	0.115559
H97	H	1.118403	-0.383959	-0.384480
H98	H	1.618403	0.116041	0.115520
H99	H	1.396420	-0.905953	-0.627986
H100	H	1.896420	-0.405953	-0.127986
H101	H	0.919420	-0.628078	-0.627889
H102	H	1.419420	-0.128078	-0.127889
H103	H	1.640344	-0.905952	-0.384374
H104	H	2.140344	-0.405952	0.115626
H105	H	1.640338	-0.627788	-0.907154
H106	H	2.140338	-0.127788	-0.407154
